data_cds_v1-4c_Cu_1_Ch_1B_4H_Ch
_audit_creation_date              2020-02-03
_audit_creation_method            'tobacco_3.0'
_symmetry_space_group_name_H-M    'P1'
_symmetry_Int_Tables_number       1
_symmetry_cell_setting            triclinic
loop_
_symmetry_equiv_pos_as_xyz
  x,y,z
_cell_length_a                    22.369466482512966
_cell_length_b                    22.369466482512962
_cell_length_c                    22.369491004361116
_cell_angle_alpha                 90.00000396880526
_cell_angle_beta                  89.99999999983709
_cell_angle_gamma                 90.0
loop_
_atom_site_label
_atom_site_type_symbol
_atom_site_fract_x
_atom_site_fract_y
_atom_site_fract_z
O1         O   -0.0497064558   -0.0000001756    0.5867352771
O2         O   -0.0497044324   -0.0000014743    0.4132642859
O3         O   -0.0497023424   -0.0867382493    0.4999925202
O4         O   -0.0497085563    0.0867429198    0.5000007191
O5         O    0.0497023319    0.0867445696    0.5000011561
O6         O    0.0497083832   -0.0867302768    0.4999992767
O7         O    0.0497064558    0.0000001756    0.4132647229
O8         O    0.0497044324    0.0000014743    0.5867357141
Cu9       Cu   -0.0587772799   -0.0000017360    0.4999950164
Cu10      Cu    0.0587772799    0.0000017360    0.5000049836
C11        C    0.0000000000   -0.0000002349    0.6123132677
C12        C   -0.0000000000    0.0000002349    0.3876867323
C13        C   -0.0000000000   -0.1123094783    0.5000002349
C14        C    0.0000000000    0.1123094783    0.4999997651
O15        O    0.9502933186    0.4999998330    0.4132641380
O16        O    0.9502953420    0.5000011317    0.5867351292
O17        O    0.9502974319    0.5867379067    0.5000068949
O18        O    0.9502912181    0.4132567376    0.4999986960
O19        O    1.0497021063    0.4132550878    0.4999982590
O20        O    1.0497081575    0.5867299342    0.5000001384
O21        O    1.0497062302    0.4999994818    0.5867346921
O22        O    1.0497042067    0.4999981831    0.4132637010
Cu23      Cu    0.9412224945    0.5000013934    0.5000043986
Cu24      Cu    1.0587770543    0.4999979214    0.4999944315
C25        C    0.9999997744    0.4999998923    0.3876861474
C26        C    0.9999997744    0.4999994225    0.6123126827
C27        C    0.9999997744    0.6123091357    0.4999991802
C28        C    0.9999997744    0.3876901791    0.4999996500
O29        O    0.4502930846    1.0000000001    0.4132642048
O30        O    0.4502951080    1.0000012988    0.5867351960
O31        O    0.4502971980    1.0867380738    0.5000069617
O32        O    0.4502909841    0.9132569047    0.4999987628
O33        O    0.5497018723    0.9132552549    0.4999983258
O34        O    0.5497079236    1.0867301014    0.5000002053
O35        O    0.5497059962    0.9999996490    0.5867347590
O36        O    0.5497039728    0.9999983503    0.4132637678
Cu37      Cu    0.4412222605    1.0000015605    0.5000044655
Cu38      Cu    0.5587768203    0.9999980885    0.4999944984
C39        C    0.4999995404    1.0000000594    0.3876862143
C40        C    0.4999995404    0.9999995896    0.6123127496
C41        C    0.4999995404    1.1123093028    0.4999992470
C42        C    0.4999995404    0.8876903462    0.4999997168
O43        O    0.4502926835    0.4999991643    0.5867338899
O44        O    0.4502947069    0.4999978656    0.4132628988
O45        O    0.4502967969    0.4132610906    0.4999911330
O46        O    0.4502905830    0.5867422597    0.4999993319
O47        O    0.5497014712    0.5867439095    0.4999997690
O48        O    0.5497075225    0.4132690631    0.4999978895
O49        O    0.5497055951    0.4999995155    0.4132633358
O50        O    0.5497035717    0.5000008142    0.5867343269
Cu51      Cu    0.4412218594    0.4999976039    0.4999936293
Cu52      Cu    0.5587764192    0.5000010759    0.5000035964
C53        C    0.4999991393    0.4999991050    0.6123118805
C54        C    0.4999991393    0.4999995748    0.3876853452
C55        C    0.4999991393    0.3876898616    0.4999988478
C56        C    0.4999991393    0.6123088182    0.4999983780
O57        O    0.0000002078   -0.0497063096    0.0867354993
O58        O    0.0000015005   -0.0497042861   -0.0867354919
O59        O    0.0867382785   -0.0497021962   -0.0000072546
O60        O   -0.0867428905   -0.0497084100    0.0000009383
O61        O   -0.0867445404    0.0497024781    0.0000013822
O62        O    0.0867303061    0.0497085294   -0.0000004913
O63        O   -0.0000001493    0.0497066020   -0.0867350480
O64        O   -0.0000014420    0.0497045786    0.0867359432
Cu65      Cu    0.0000017652   -0.0587771337   -0.0000047620
Cu66      Cu   -0.0000017067    0.0587774261    0.0000052133
C67        C    0.0000002680    0.0000001462    0.1123134933
C68        C   -0.0000002095    0.0000001462   -0.1123130420
C69        C    0.1123095076    0.0000001462    0.0000004644
C70        C   -0.1123094491    0.0000001462   -0.0000000132
O71        O    0.9999995101    0.5497056870    0.9132632556
O72        O    1.0000008028    0.5497036636    1.0867342468
O73        O    1.0867375807    0.5497015737    1.0000060096
O74        O    0.9132564117    0.5497077875    0.9999978166
O75        O    0.9132547618    0.4502968993    0.9999973727
O76        O    1.0867296083    0.4502908481    0.9999992462
O77        O    0.9999991529    0.4502927754    1.0867338029
O78        O    0.9999978602    0.4502947989    0.9132628117
Cu79      Cu    1.0000010675    0.5587765111    1.0000035169
Cu80      Cu    0.9999975955    0.4412219513    0.9999935417
C81        C    0.9999995703    0.4999992312    0.8876852616
C82        C    0.9999990927    0.4999992312    1.1123117969
C83        C    1.1123088098    0.4999992312    0.9999982905
C84        C    0.8876898532    0.4999992312    0.9999987681
O85        O    0.4999996794   -0.0497063639   -0.0867352304
O86        O    0.4999983867   -0.0497043404    0.0867357608
O87        O    0.4132616087   -0.0497022505    0.0000075235
O88        O    0.5867427777   -0.0497084643   -0.0000006694
O89        O    0.5867444276    0.0497024238   -0.0000010995
O90        O    0.4132695811    0.0497084751    0.0000007739
O91        O    0.5000000365    0.0497065477    0.0867353307
O92        O    0.5000013292    0.0497045243   -0.0867356605
Cu93      Cu    0.4999981220   -0.0587771880    0.0000050296
Cu94      Cu    0.5000015939    0.0587773718   -0.0000049293
C95        C    0.4999996192    0.0000000919   -0.1123132175
C96        C    0.5000000967    0.0000000919    0.1123133178
C97        C    0.3876903796    0.0000000919   -0.0000001886
C98        C    0.6123093363    0.0000000919    0.0000002889
O99        O    0.4999988541    0.5497052484    0.9132622445
O100       O    0.5000001468    0.5497032249    1.0867332357
O101       O    0.5867369248    0.5497011350    1.0000049984
O102       O    0.4132557557    0.5497073488    0.9999968055
O103       O    0.4132541059    0.4502964606    0.9999963616
O104       O    0.5867289524    0.4502904094    0.9999982351
O105       O    0.4999984969    0.4502923367    1.0867327918
O106       O    0.4999972042    0.4502943602    0.9132618006
Cu107     Cu    0.5000004115    0.5587760724    1.0000025058
Cu108     Cu    0.4999969395    0.4412215127    0.9999925305
C109       C    0.4999989143    0.4999987925    0.8876842505
C110       C    0.4999984367    0.4999987925    1.1123107858
C111       C    0.6123081538    0.4999987925    0.9999972794
C112       C    0.3876891972    0.4999987925    0.9999977570
C263       C    0.7844201968    0.5318256669    1.0504134442
C264       C    0.8188436531    0.4999991216    0.9999983959
C265       C    0.7844224598    0.4681724666    0.9495829754
C266       C    0.7155778102    0.4681723569    0.9495826033
C267       C    0.6811543539    0.4999989022    0.9999976516
C268       C    0.7155755472    0.5318255572    1.0504130720
H269       H    0.8099008203    0.5553856582    1.0877339502
H270       H    0.8099014905    0.4446135637    0.9122643404
H271       H    0.6900971867    0.4446123656    0.9122620972
H272       H    0.6900965165    0.5553844601    1.0877317071
C253       C    1.2155776005    0.4987688703    1.0596060807
C254       C    1.1811543539    0.4999991216    0.9999981571
C255       C    1.2155757569    0.5012292632    0.9403901002
C256       C    1.2844204065    0.5012291535    0.9403899668
C257       C    1.3188436531    0.4999989022    0.9999978903
C258       C    1.2844222501    0.4987687606    1.0596059473
H259       H    1.1900968217    0.4978582459    1.1037315254
H260       H    1.1900968814    0.5021399298    0.8962666406
H261       H    1.3099011853    0.5021397779    0.8962645221
H262       H    1.3099011256    0.4978580940    1.1037294069
C243       C   -0.2155784925    0.0335863222    0.0492605915
C244       C   -0.1811554068    0.0000001327    0.0000000624
C245       C   -0.2155769707   -0.0335860704   -0.0492603912
C246       C   -0.2844216203   -0.0335860840   -0.0492603157
C247       C   -0.3188447060    0.0000001055    0.0000002134
C248       C   -0.2844231421    0.0335863086    0.0492606670
H249       H   -0.1900975945    0.0584488362    0.0857261221
H250       H   -0.1900982144   -0.0584475115   -0.0857244188
H251       H   -0.3099025183   -0.0584485980   -0.0857258463
H252       H   -0.3099018984    0.0584477496    0.0857246946
C233       C    0.2155783673   -0.0559649021   -0.0205557666
C234       C    0.1811552940    0.0000001327    0.0000003012
C235       C    0.2155768703    0.0559651538    0.0205562056
C236       C    0.2844215199    0.0559651402    0.0205560423
C237       C    0.3188445932    0.0000001055   -0.0000000254
C238       C    0.2844230169   -0.0559649157   -0.0205559298
H239       H    0.1900974602   -0.0973935541   -0.0357724750
H240       H    0.1900981232    0.0973920448    0.0357723844
H241       H    0.3099024270    0.0973937923    0.0357727508
H242       H    0.3099017641   -0.0973918066   -0.0357721086
C223       C    0.5559611174    0.4794349111    0.7155766077
C224       C    0.4999990831    0.4999990269    0.6811534914
C225       C    0.4440369925    0.5205630646    0.7155749492
C226       C    0.4440369363    0.5205629865    0.7844195233
C227       C    0.4999989706    0.4999988707    0.8188426396
C228       C    0.5559610611    0.4794348330    0.7844211818
H229       H    0.5973876000    0.4642121819    0.6900957883
H230       H    0.4026123226    0.5357852008    0.6900961702
H231       H    0.4026104536    0.5357857157    0.8099003427
H232       H    0.5973857310    0.4642126967    0.8098999608
C213       C    0.5042585114    0.4405308933    0.2844196982
C214       C    0.4999989637    0.4999993792    0.3188426396
C215       C    0.4957392403    0.5594676696    0.2844210069
C216       C    0.4957390647    0.5594674740    0.2155764328
C217       C    0.4999986124    0.4999989881    0.1811534914
C218       C    0.5042583357    0.4405306977    0.2155751241
H219       H    0.5074118131    0.3965089121    0.3099006471
H220       H    0.4925862034    0.6034879135    0.3098996564
H221       H    0.4925857629    0.6034894552    0.1900954839
H222       H    0.5074113726    0.3965104538    0.1900964746
C203       C    0.4529215053    1.0365824807    0.2844211565
C204       C    0.4999996795    1.0000000676    0.3188443401
C205       C    0.5470779927    0.9634176626    0.2844229496
C206       C    0.5470781318    0.9634176707    0.2155783755
C207       C    0.4999999577    1.0000000838    0.1811551919
C208       C    0.4529216444    1.0365824888    0.2155765824
H209       H    0.4180713254    1.0636629623    0.3099019261
H210       H    0.5819265798    0.9363383327    0.3099017784
H211       H    0.5819283118    0.9363371891    0.1900976059
H212       H    0.4180730573    1.0636618187    0.1900977536
C193       C    0.4406978254    1.0061589975    0.7844212509
C194       C    0.4999995995    0.9999999664    0.8188443401
C195       C    0.5593013539    0.9938408097    0.7844228552
C196       C    0.5593013342    0.9938406841    0.7155782811
C197       C    0.4999995601    0.9999997152    0.6811551919
C198       C    0.4406978057    1.0061588719    0.7155766768
H199       H    0.3967991240    1.0107183732    0.8099020904
H200       H    0.6031981931    0.9892817218    0.8099016142
H201       H    0.6032000355    0.9892813084    0.6900974416
H202       H    0.3968009665    1.0107179598    0.6900979179
C183       C    0.4884108241    0.7155778023    0.5584824987
C184       C    0.4999992396    0.6811549326    0.4999987127
C185       C    0.5115877553    0.7155767125    0.4415152614
C186       C    0.5115878556    0.7844213621    0.4415155961
C187       C    0.4999994401    0.8188442318    0.4999993821
C188       C    0.4884109244    0.7844224519    0.5584828334
H189       H    0.4798323124    0.6900967445    0.6017754431
H190       H    0.5201658260    0.6900981161    0.3982239200
H191       H    0.5201663673    0.8099024200    0.3982226516
H192       H    0.4798328537    0.8099010483    0.6017741748
C173       C    0.5431612810    1.2155781911    0.5411291488
C174       C    0.4999994401    1.1811549326    0.4999991472
C175       C    0.4568374990    1.2155763238    0.4588690457
C176       C    0.4568373987    1.2844209734    0.4588689459
C177       C    0.4999992396    1.3188442318    0.4999989476
C178       C    0.5431611807    1.2844228406    0.5411290490
H179       H    0.5751123283    1.1900974210    0.5715761071
H180       H    0.4248878918    1.1900974396    0.4284234631
H181       H    0.4248863514    1.3099017434    0.4284219877
H182       H    0.5751107879    1.3099017248    0.5715746317
C163       C    0.9784999821    0.5556090286    0.2844203745
C164       C    0.9999996040    0.4999997270    0.3188435463
C165       C    1.0214990554    0.4443902602    0.2844221439
C166       C    1.0214988850    0.4443900950    0.2155775698
C167       C    0.9999992631    0.4999993965    0.1811543981
C168       C    0.9784998117    0.5556088633    0.2155758004
H169       H    0.9625848038    0.5967744780    0.3099011529
H170       H    1.0374136795    0.4032266930    0.3099009640
H171       H    1.0374140633    0.4032246455    0.1900967915
H172       H    0.9625851876    0.5967724306    0.1900969804
C153       C    0.9808741213    0.5564692189    0.7155775224
C154       C    0.9999997234    0.4999993747    0.6811543981
C155       C    1.0191252744    0.4435294827    0.7155758479
C156       C    1.0191252234    0.4435294349    0.7844204220
C157       C    0.9999996213    0.4999992791    0.8188435463
C158       C    0.9808740702    0.5564691711    0.7844220965
H159       H    0.9667162458    0.5982716065    0.6900967089
H160       H    1.0332825824    0.4017289176    0.6900970630
H161       H    1.0332830989    0.4017270473    0.8099012355
H162       H    0.9667167623    0.5982697362    0.8099008814
C143       C   -0.0143869967   -0.0578589744    0.7155786992
C144       C   -0.0000000524   -0.0000001396    0.6811555387
C145       C    0.0143868395    0.0578587904    0.7155769524
C146       C    0.0143867871    0.0578588857    0.7844215265
C147       C   -0.0000001572    0.0000000510    0.8188446869
C148       C   -0.0143870491   -0.0578588791    0.7844232733
H149       H   -0.0250370336   -0.1006896109    0.6900979125
H150       H    0.0250364599    0.1006875253    0.6900981407
H151       H    0.0250368240    0.1006895222    0.8099023132
H152       H   -0.0250366694   -0.1006876140    0.8099020850
C133       C   -0.0501797327    0.0321967546    0.2844215346
C134       C    0.0000000670    0.0000002127    0.3188446869
C135       C    0.0501799337   -0.0321963513    0.2844232651
C136       C    0.0501800008   -0.0321963735    0.2155786910
C137       C    0.0000002010    0.0000001684    0.1811555387
C138       C   -0.0501796657    0.0321967324    0.2155769605
H139       H   -0.0873258678    0.0560305747    0.3099023273
H140       H    0.0873244312   -0.0560291361    0.3099020708
H141       H    0.0873261359   -0.0560301936    0.1900978983
H142       H   -0.0873241632    0.0560295172    0.1900981548
C123       C    0.0068167222    0.2155782889    0.4407700238
C124       C   -0.0000000564    0.1811551791    0.4999997363
C125       C   -0.0068168914    0.2155767189    0.5592294200
C126       C   -0.0068169478    0.2844213685    0.5592293912
C127       C   -0.0000001692    0.3188444783    0.4999996787
C128       C    0.0068166658    0.2844229385    0.4407699950
H129       H    0.0118629507    0.1900974088    0.3969246735
H130       H   -0.0118628625    0.1900979447    0.6030729172
H131       H   -0.0118631764    0.3099022486    0.6030747415
H132       H    0.0118626368    0.3099017127    0.3969264979
C113       C   -0.0468079589   -0.2155787553    0.5369275200
C114       C   -0.0000000564   -0.1811555217    0.4999999712
C115       C    0.0468077897   -0.2155769377    0.4630721587
C116       C    0.0468077333   -0.2844215873    0.4630718950
C117       C   -0.0000001692   -0.3188448209    0.4999994438
C118       C   -0.0468080153   -0.2844234049    0.5369272563
H119       H   -0.0814579229   -0.1900979669    0.5642636929
H120       H    0.0814563141   -0.1900980719    0.4357373497
H121       H    0.0814576973   -0.3099023757    0.4357357222
H122       H   -0.0814565397   -0.3099022707    0.5642620654
loop_
_geom_bond_atom_site_label_1
_geom_bond_atom_site_label_2
_geom_bond_distance
_geom_bond_site_symmetry_2
_ccdc_geom_bond_type
C236       H241 1.140       .   S
C137       C138 1.540       .   A
C138       H142 1.140       .   S
C133       C138 1.540       .   A
C215       H220 1.140       .   S
C216       H221 1.140       .   S
C218       H222 1.140       .   S
C39        C204 1.540       .   S
O36         C39 1.250       .   A
O29         C39 1.250       .   A
C116       H121 1.140       .   S
C185       C186 1.540       .   A
C186       C187 1.540       .   A
C186       H191 1.140       .   S
O8          C11 1.250       .   A
O8         Cu10 1.951       .   S
O7          C12 1.250       .   A
O7         Cu10 1.951       .   S
O6          C13 1.251       .   A
O6         Cu10 1.951       .   S
O5         Cu10 1.951       .   S
O5          C14 1.250       .   A
O4          Cu9 1.951       .   S
O4          C14 1.250       .   A
O3          C13 1.250       .   A
O3          Cu9 1.951       .   S
O2          C12 1.250       .   A
O2          Cu9 1.951       .   S
O1          C11 1.250       .   A
O1          Cu9 1.951       .   S
C153       C158 1.540       .   A
C153       H159 1.140       .   S
C153       C154 1.540       .   A
C157        C81 1.540       .   S
C157       C158 1.540       .   A
C156       C157 1.540       .   A
C156       H161 1.140       .   S
C155       C156 1.540       .   A
C155       H160 1.140       .   S
C154       C155 1.540       .   A
O29        Cu37 1.951       .   S
C133       C134 1.540       .   A
C133       H139 1.140       .   S
C158       H162 1.140       .   S
O22        Cu24 1.951       .   S
O22         C25 1.250       .   A
O20        Cu24 1.951       .   S
O20         C27 1.251       .   A
O21        Cu24 1.951       .   S
O21         C26 1.250       .   A
C243       C248 1.540       .   A
C247       C248 1.540       .   A
C248       H252 1.140       .   S
O48        Cu52 1.951       .   S
O49        Cu52 1.951       .   S
O50        Cu52 1.951       .   S
Cu51       Cu52 2.630       .   S
O47        Cu52 1.951       .   S
O43        Cu51 1.951       .   S
O44        Cu51 1.951       .   S
O45        Cu51 1.951       .   S
O46        Cu51 1.951       .   S
C243       H249 1.140       .   S
C243       C244 1.540       .   A
C247        C98 1.540   1_455   S
C246       C247 1.540       .   A
C246       H251 1.140       .   S
C245       C246 1.540       .   A
C245       H250 1.140       .   S
C244       C245 1.540       .   A
C244        C70 1.540       .   S
O16         C26 1.250       .   A
C154        C26 1.540       .   S
O17         C27 1.250       .   A
C117        C27 1.540   1_445   S
O15         C25 1.250       .   A
C25        C164 1.540       .   S
C28        C127 1.540   1_655   S
O19         C28 1.250       .   A
O18         C28 1.250       .   A
O15        Cu23 1.951       .   S
C228       H232 1.140       .   S
C226       H231 1.140       .   S
C225       H230 1.140       .   S
C233       H239 1.140       .   S
C143       H149 1.140       .   S
C167       C168 1.540       .   A
C168       H172 1.140       .   S
C163       C168 1.540       .   A
C166       C167 1.540       .   A
C165       C166 1.540       .   A
C166       H171 1.140       .   S
C167        C82 1.540   1_554   S
C164       C165 1.540       .   A
C163       C164 1.540       .   A
C165       H170 1.140       .   S
C125       H130 1.140       .   S
C163       H169 1.140       .   S
C128       H132 1.140       .   S
O59         C69 1.250       .   A
O59        Cu65 1.951       .   S
O58         C68 1.250       .   A
O58        Cu65 1.951       .   S
O62        Cu66 1.951       .   S
O63        Cu66 1.951       .   S
O61        Cu66 1.951       .   S
O64        Cu66 1.951       .   S
Cu65       Cu66 2.630       .   S
O57        Cu65 1.951       .   S
O60        Cu65 1.951       .   S
O50         C53 1.250       .   A
O57         C67 1.250       .   A
C184        C56 1.540       .   S
C184       C185 1.540       .   A
C183       C184 1.540       .   A
O46         C56 1.250       .   A
O47         C56 1.250       .   A
O48         C55 1.251       .   A
O45         C55 1.250       .   A
C55        C177 1.540   1_545   S
C214        C54 1.540       .   S
O49         C54 1.250       .   A
O44         C54 1.250       .   A
C53        C224 1.540       .   S
O43         C53 1.250       .   A
C183       H189 1.140       .   S
C183       C188 1.540       .   A
C188       H192 1.140       .   S
C187       C188 1.540       .   A
C126       H131 1.140       .   S
C136       H141 1.140       .   S
C266       H271 1.140       .   S
C223       H229 1.140       .   S
C193       H199 1.140       .   S
C193       C194 1.540       .   A
C193       C198 1.540       .   A
C265       H270 1.140       .   S
C198       H202 1.140       .   S
C195       H200 1.140       .   S
C196       H201 1.140       .   S
C173       C178 1.540       .   A
C177       C178 1.540       .   A
C178       H182 1.140       .   S
C263       C268 1.540       .   A
C263       C264 1.540       .   A
C263       H269 1.140       .   S
C264       C265 1.540       .   A
C265       C266 1.540       .   A
C264        C84 1.540       .   S
C267       C268 1.540       .   A
C267       C111 1.540       .   S
C266       C267 1.540       .   A
C268       H272 1.140       .   S
C173       C174 1.540       .   A
C173       H179 1.140       .   S
C175       H180 1.140       .   S
C174       C175 1.540       .   A
C175       C176 1.540       .   A
C41        C174 1.540       .   S
C176       C177 1.540       .   A
C176       H181 1.140       .   S
Cu79       Cu80 2.630       .   S
O74        Cu79 1.951       .   S
O71        Cu79 1.951       .   S
O73        Cu79 1.951       .   S
O72        Cu79 1.951       .   S
C196       C197 1.540       .   A
C40        C197 1.540       .   S
C197       C198 1.540       .   A
C195       C196 1.540       .   A
C194       C195 1.540       .   A
C194        C95 1.540   1_566   S
O30         C40 1.250       .   A
O35         C40 1.250       .   A
O31         C41 1.250       .   A
O34         C41 1.251       .   A
O33         C42 1.250       .   A
O32         C42 1.250       .   A
C42        C187 1.540       .   S
O75        Cu80 1.951       .   S
O77        Cu80 1.951       .   S
O76        Cu80 1.951       .   S
O78        Cu80 1.951       .   S
C206       H211 1.140       .   S
C205       H210 1.140       .   S
C208       H212 1.140       .   S
C213       H219 1.140       .   S
C113       H119 1.140       .   S
C214       C215 1.540       .   A
C213       C214 1.540       .   A
C215       C216 1.540       .   A
C216       C217 1.540       .   A
C217       C218 1.540       .   A
C217       C110 1.540   1_554   S
O78         C81 1.250       .   A
C213       C218 1.540       .   A
O75         C84 1.250       .   A
O74         C84 1.250       .   A
O77         C82 1.250       .   A
O76         C83 1.251       .   A
O71         C81 1.250       .   A
C11        C144 1.540       .   S
C143       C144 1.540       .   A
C144       C145 1.540       .   A
O73         C83 1.250       .   A
O72         C82 1.250       .   A
O99        C109 1.250       .   A
O99       Cu107 1.951       .   S
C185       H190 1.140       .   S
O60         C70 1.250       .   A
O61         C70 1.250       .   A
O92         C95 1.250       .   A
O92        Cu94 1.951       .   S
O91         C96 1.250       .   A
O91        Cu94 1.951       .   S
O90         C97 1.251       .   A
O90        Cu94 1.951       .   S
O85        Cu93 1.951       .   S
O86        Cu93 1.951       .   S
O87        Cu93 1.951       .   S
O88        Cu93 1.951       .   S
Cu93       Cu94 2.630       .   S
O89        Cu94 1.951       .   S
O100       C110 1.250       .   A
O100      Cu107 1.951       .   S
O101       C111 1.250       .   A
O101      Cu107 1.951       .   S
O102       C112 1.250       .   A
O102      Cu107 1.951       .   S
O103      Cu108 1.951       .   S
O103       C112 1.250       .   A
O104      Cu108 1.951       .   S
O104       C111 1.251       .   A
O105      Cu108 1.951       .   S
O105       C110 1.250       .   A
O106      Cu108 1.951       .   S
O106       C109 1.250       .   A
O62         C69 1.251       .   A
O63         C68 1.250       .   A
O64         C67 1.250       .   A
C148       H152 1.140       .   S
C255       H260 1.140       .   S
C256       H261 1.140       .   S
C258       H262 1.140       .   S
C206       C207 1.540       .   A
C207        C96 1.540   1_565   S
C207       C208 1.540       .   A
C205       C206 1.540       .   A
C204       C205 1.540       .   A
C203       C204 1.540       .   A
C203       H209 1.140       .   S
C203       C208 1.540       .   A
C117       C118 1.540       .   A
C113       C118 1.540       .   A
C118       H122 1.140       .   S
C116       C117 1.540       .   A
C115       C116 1.540       .   A
C114       C115 1.540       .   A
C115       H120 1.140       .   S
Cu9        Cu10 2.630       .   S
C112       C257 1.540   1_455   S
Cu107     Cu108 2.630       .   S
O88         C98 1.250       .   A
O89         C98 1.250       .   A
C147        C68 1.540   1_556   S
C234        C69 1.540       .   S
C137        C67 1.540       .   S
O86         C96 1.250       .   A
O87         C97 1.250       .   A
C143       C148 1.540       .   A
C145       H150 1.140       .   S
C145       C146 1.540       .   A
O17        Cu23 1.951       .   S
O16        Cu23 1.951       .   S
Cu23       Cu24 2.630       .   S
O19        Cu24 1.951       .   S
C114        C13 1.540       .   S
C113       C114 1.540       .   A
O18        Cu23 1.951       .   S
C233       C238 1.540       .   A
C233       C234 1.540       .   A
C123       C128 1.540       .   A
C127       C128 1.540       .   A
C236       C237 1.540       .   A
C235       C236 1.540       .   A
C237        C97 1.540       .   S
C237       C238 1.540       .   A
C234       C235 1.540       .   A
C235       H240 1.140       .   S
C123       H129 1.140       .   S
C123       C124 1.540       .   A
C238       H242 1.140       .   S
C126       C127 1.540       .   A
C125       C126 1.540       .   A
C14        C124 1.540       .   S
C124       C125 1.540       .   A
C135       H140 1.140       .   S
C134        C12 1.540       .   S
C134       C135 1.540       .   A
C135       C136 1.540       .   A
C136       C137 1.540       .   A
O31        Cu37 1.951       .   S
O30        Cu37 1.951       .   S
O32        Cu37 1.951       .   S
Cu37       Cu38 2.630       .   S
C147       C148 1.540       .   A
O33        Cu38 1.951       .   S
O35        Cu38 1.951       .   S
O34        Cu38 1.951       .   S
O36        Cu38 1.951       .   S
C227       C228 1.540       .   A
C223       C228 1.540       .   A
O85         C95 1.250       .   A
C224       C225 1.540       .   A
C225       C226 1.540       .   A
C223       C224 1.540       .   A
C226       C227 1.540       .   A
C227       C109 1.540       .   S
C253       H259 1.140       .   S
C146       H151 1.140       .   S
C83        C254 1.540       .   S
C146       C147 1.540       .   A
C253       C258 1.540       .   A
C257       C258 1.540       .   A
C253       C254 1.540       .   A
C254       C255 1.540       .   A
C255       C256 1.540       .   A
C256       C257 1.540       .   A
