data_ffc_v1-4c_Cu_1_Ch_v2-4c_Cu_1_Ch_v3-3c_triazine_Ch_1B_4H_Ch
_audit_creation_date              2020-02-03
_audit_creation_method            'tobacco_3.0'
_symmetry_space_group_name_H-M    'P1'
_symmetry_Int_Tables_number       1
_symmetry_cell_setting            triclinic
loop_
_symmetry_equiv_pos_as_xyz
  x,y,z
_cell_length_a                    33.51057798116627
_cell_length_b                    33.51072270807333
_cell_length_c                    15.726210993413488
_cell_angle_alpha                 90.00002384488847
_cell_angle_beta                  89.9999760395737
_cell_angle_gamma                 89.99999824174805
loop_
_atom_site_label
_atom_site_type_symbol
_atom_site_fract_x
_atom_site_fract_y
_atom_site_fract_z
O1         O    0.5331754117    0.0409394732   -0.0872508464
O2         O    0.5331847841   -0.0409317688    0.0872495676
O3         O    0.5331833909   -0.0409463168   -0.0872236059
O4         O    0.5331768119    0.0409540204    0.0872350448
O5         O    0.4668166161    0.0409463160    0.0872363235
O6         O    0.4668233029   -0.0409480539   -0.0872223257
O7         O    0.4668245883   -0.0409394732    0.0872508464
O8         O    0.4668152159    0.0409317688   -0.0872495676
Cu9       Cu    0.5392358615    0.0000019662    0.0000032324
Cu10      Cu    0.4607641385   -0.0000019662   -0.0000032324
C11        C    0.4999930574    0.0530067796   -0.1129808462
C12        C    0.5000069426   -0.0530067796    0.1129808462
C13        C    0.5000069442   -0.0530186089   -0.1129478630
C14        C    0.4999930558    0.0530186089    0.1129478630
C15        C    0.4999862492    0.2445734402    0.4998825480
N16        N    0.4999839082    0.2215957170    0.5846836240
C17        C    0.4999792264    0.1756402774    0.5846835747
N18        N    0.4999768855    0.1526625611    0.4998824496
C19        C    0.4999792264    0.1756402843    0.4150813736
N20        N    0.4999839083    0.2215957239    0.4150814228
C21        C    0.5000382804    0.7553882965    0.5001176689
N22        N    0.5000359407    0.7783659946    0.4153165620
C23        C    0.5000312612    0.8243214341    0.4153165493
N24        N    0.5000289214    0.8472991756    0.5001176436
C25        C    0.5000312612    0.8243214775    0.5849187505
N26        N    0.5000359407    0.7783660380    0.5849187631
O27        O    0.9590411096    0.5328980958   -0.0872493507
O28        O    1.0409127057    0.5328858460    0.0872510610
O29        O    1.0409272525    0.5328844490   -0.0872221125
O30        O    0.9590265636    0.5328994999    0.0872365405
O31        O    0.9590167464    0.4665395910    0.0872377012
O32        O    1.0409114679    0.4665246494   -0.0872209502
O33        O    1.0409028884    0.4665259371    0.0872522218
O34        O    0.9590312923    0.4665381869   -0.0872481899
Cu35      Cu    0.9999803926    0.5389477076    0.0000047377
Cu36      Cu    0.9999636054    0.4604763253   -0.0000018665
C37        C    0.9469649899    0.4997190730   -0.1129794091
C38        C    1.0529790081    0.4997049600    0.1129822803
C39        C    1.0529908363    0.4997049584   -0.1129464289
C40        C    0.9469531617    0.4997190746    0.1129493001
C41        C    0.2446393792    0.4997556875    0.5001188379
N42        N    0.2216615691    0.4997481159    0.5849199685
C43        C    0.1757059333    0.4997329726    0.5849200287
N44        N    0.1527281076    0.4997254010    0.5001189583
C45        C    0.1757059177    0.4997329726    0.4153178276
N46        N    0.2216615535    0.4997481159    0.4153177674
C47        C    0.7554490619    0.4998085798    0.4998837382
N48        N    0.7784268536    0.4998010058    0.5846848505
C49        C    0.8243824894    0.4997858577    0.5846848740
N50        N    0.8473603335    0.4997782837    0.4998837851
C51        C    0.8243825418    0.4997858577    0.4150826728
N52        N    0.7784269060    0.4998010058    0.4150826493
O53        O    0.5000570657    0.5577693413    0.5707272550
O54        O    0.5000580101    0.4419718475    0.5706791934
O55        O    0.5579577586    0.4998657907    0.5706762202
O56        O    0.4421530981    0.4998711769    0.5707302432
O57        O    0.4421398741    0.4998835923    0.4293250155
O58        O    0.5579403141    0.4998824245    0.4292712269
O59        O    0.5000447861    0.4419842629    0.4292739656
O60        O    0.5000438417    0.5577817567    0.4293220273
Cu61      Cu    0.5000592524    0.4998663072    0.5836072923
Cu62      Cu    0.5000425995    0.4998872970    0.4163939284
C63        C    0.5000510324    0.5748495388    0.5000298639
C64        C    0.5000508194    0.4249040655    0.4999713567
C65        C    0.5750213747    0.4998770146    0.4999713600
C66        C    0.4250804772    0.4998765896    0.5000298606
C177       C    0.6882031472    0.4983283344    0.4151706463
C178       C    0.7111913916    0.4998253664    0.4999052312
C179       C    0.6882234628    0.5013398293    0.5846621340
C180       C    0.6422672895    0.5013572601    0.5846844519
C181       C    0.6192790450    0.4998602280    0.4999498670
C182       C    0.6422469738    0.4983457652    0.4151929642
H183       H    0.7052053802    0.4972072385    0.3524285234
H184       H    0.7052385528    0.5024479750    0.6473850549
H185       H    0.6252650564    0.5024783560    0.6474265747
H186       H    0.6252318838    0.4972376195    0.3524700433
C167       C    0.3118644267    0.5137513759    0.4206600666
C168       C    0.2889037619    0.4997853463    0.5000970107
C169       C    0.3118992634    0.4858501089    0.5795112934
C170       C    0.3578554297    0.4858809012    0.5794886319
C171       C    0.3808160945    0.4998469309    0.5000516878
C172       C    0.3578205929    0.5137821682    0.4206374052
H173       H    0.2948417827    0.5240670711    0.3618728703
H174       H    0.2949045887    0.4755120624    0.6383127503
H175       H    0.3748780737    0.4755652061    0.6382758282
H176       H    0.3748152677    0.5241202147    0.3618359482
C157       C    0.9307975094    0.4989907328    0.2824272970
C158       C    0.9157221491    0.4997360909    0.1899329294
C159       C    0.8705924915    0.5004978243    0.1715216188
C160       C    0.8405381941    0.5005141995    0.2456046759
C161       C    0.8556135544    0.4997688414    0.3380990435
C162       C    0.9007432120    0.4990071080    0.3565103541
H163       H    0.9642051780    0.4984268523    0.2960564490
H164       H    0.8594323352    0.5010495598    0.1030570339
H165       H    0.8071305255    0.5010780800    0.2319755239
H166       H    0.9119033683    0.4984553725    0.4249749390
C147       C    0.8705798003    0.4997683040   -0.1716542174
C148       C    0.9157181753    0.4997360967   -0.1900461034
C149       C    0.9308121146    0.4997202581   -0.2825391536
C150       C    0.9007676790    0.4997366268   -0.3566403178
C151       C    0.8556293040    0.4997688340   -0.3382484317
C152       C    0.8405353647    0.4997846726   -0.2457553816
H153       H    0.8594063647    0.4997800287   -0.1031853361
H154       H    0.9642238570    0.4996964179   -0.2961556894
H155       H    0.9119411146    0.4997249021   -0.4251091991
H156       H    0.8071236223    0.4998085128   -0.2321388457
C137       C    1.1594751057    0.4997257883    0.2457003836
C138       C    1.1444071609    0.4997258286    0.3382138999
C139       C    1.0992745181    0.4997190067    0.3566635702
C140       C    1.0692098201    0.4997121444    0.2825997243
C141       C    1.0842777649    0.4997121040    0.1900862080
C142       C    1.1294104077    0.4997189259    0.1716365377
H143       H    1.1928849841    0.4997308383    0.2320428354
H144       H    1.0881198506    0.4997190364    0.4251423300
H145       H    1.0357999417    0.4997070943    0.2962572725
H146       H    1.1405650752    0.4997188963    0.1031577778
C127       C    1.0692182036    0.4996950046   -0.2824900457
C128       C    1.0842738362    0.4997120999   -0.1899674622
C129       C    1.1294040175    0.4997360608   -0.1714906166
C130       C    1.1594785661    0.4997429264   -0.2455363545
C131       C    1.1444229334    0.4997258311   -0.3380589380
C132       C    1.0992927522    0.4997018703   -0.3565357836
H133       H    1.0358101473    0.4996772673   -0.2961677106
H134       H    1.1405495715    0.4997487154   -0.1030051444
H135       H    1.1928866224    0.4997606637   -0.2318586896
H136       H    1.0881471981    0.4996892156   -0.4250212558
C117       C    0.5334813177    0.6881036450    0.4540938519
C118       C    0.5000414104    0.7110748957    0.5000961171
C119       C    0.4666047492    0.6880901683    0.5460760316
C120       C    0.4666079952    0.6421341903    0.5460536809
C121       C    0.5000479024    0.6191629396    0.5000514157
C122       C    0.5334845637    0.6421476670    0.4540715012
H123       H    0.5582331318    0.7051183133    0.4200567724
H124       H    0.4418515905    0.7050926790    0.5801281999
H125       H    0.4418561810    0.6251195219    0.5800907605
H126       H    0.5582377223    0.6251451563    0.4200193329
C107       C    0.4608736054    0.3117736515    0.5153216657
C108       C    0.5000020790    0.2887827776    0.4999043201
C109       C    0.5391470079    0.3117478790    0.4845096067
C110       C    0.5391634632    0.3577038542    0.4845322390
C111       C    0.5000349896    0.3806947280    0.4999495846
C112       C    0.4608900607    0.3577296267    0.5153442980
H113       H    0.4318961905    0.2947735115    0.5267177523
H114       H    0.5681110038    0.2947308427    0.4730972551
H115       H    0.5681408780    0.3747039941    0.4731361525
H116       H    0.4319260648    0.3747466630    0.5267566497
C97        C    0.4612561475   -0.0924864747   -0.2395884277
C98        C    0.5000131420   -0.0842817982   -0.1899547106
C99        C    0.5387760972   -0.1061438892   -0.2143808391
C100       C    0.5387820579   -0.1362106567   -0.2884406849
C101       C    0.5000250633   -0.1444153331   -0.3380744020
C102       C    0.4612621082   -0.1225532422   -0.3136482734
H103       H    0.4325614924   -0.0763028489   -0.2215067481
H104       H    0.5674651135   -0.1000715087   -0.1776429111
H105       H    0.5674767130   -0.1523942825   -0.3065223645
H106       H    0.4325730918   -0.1286256227   -0.3503862015
C87        C    0.5043564123   -0.1292408951    0.1719739107
C88        C    0.5000131434   -0.0842857656    0.1900707339
C89        C    0.4956758330   -0.0693875433    0.2822455209
C90        C    0.4956817915   -0.0994444504    0.3563234848
C91        C    0.5000250604   -0.1443995799    0.3382266616
C92        C    0.5043623708   -0.1592978022    0.2460518746
H93        H    0.5075671486   -0.1402694493    0.1037406267
H94        H    0.4924608235   -0.0361114447    0.2956436422
H95        H    0.4924710552   -0.0884158962    0.4245567688
H96        H    0.5075773803   -0.1925739008    0.2326537533
C77        C    0.5223507817    0.1044613155    0.3469371633
C78        C    0.4999827508    0.1443908451    0.3380843604
C79        C    0.4776181103    0.1542589763    0.2551618154
C80        C    0.4776215006    0.1241975777    0.1810920733
C81        C    0.4999895315    0.0842680481    0.1899448762
C82        C    0.5223541720    0.0743999170    0.2728674212
H83        H    0.5389064246    0.0971563353    0.4083213849
H84        H    0.4610606655    0.1838149845    0.2486063779
H85        H    0.4610658576    0.1315025579    0.1197078517
H86        H    0.5389116167    0.0448439087    0.2794228587
C67        C    0.5397342902    0.1008453947   -0.2242641034
C68        C    0.4999895312    0.0842719836   -0.1900607935
C69        C    0.4602413829    0.0977501174   -0.2299453258
C70        C    0.4602379936    0.1278016623   -0.3040331680
C71        C    0.4999827526    0.1443750734   -0.3382364779
C72        C    0.5397309009    0.1308969397   -0.2983519456
H73        H    0.5691582441    0.0908680749   -0.1947391899
H74        H    0.4308211956    0.0854829639   -0.2046294196
H75        H    0.4308140397    0.1377789821   -0.3335580815
H76        H    0.5691510882    0.1431640931   -0.3236678519
loop_
_geom_bond_atom_site_label_1
_geom_bond_atom_site_label_2
_geom_bond_distance
_geom_bond_site_symmetry_2
_ccdc_geom_bond_type
C119       H124 1.140       .   S
C138        C45 1.603   1_655   S
C137       C138 1.540       .   A
C138       C139 1.540       .   A
C39        C128 1.602       .   S
O32         C39 1.251       .   A
O29         C39 1.250       .   A
C141        C38 1.603       .   S
O33         C38 1.250       .   A
O28         C38 1.250       .   A
O8          C11 1.250       .   A
O8         Cu10 1.951       .   S
O7          C12 1.250       .   A
O7         Cu10 1.951       .   S
O6          C13 1.251       .   A
O6         Cu10 1.951       .   S
O5         Cu10 1.951       .   S
O5          C14 1.250       .   A
O4          Cu9 1.951       .   S
O4          C14 1.250       .   A
O3          C13 1.250       .   A
O3          Cu9 1.951       .   S
O2          C12 1.250       .   A
O2          Cu9 1.951       .   S
O1          C11 1.250       .   A
O1          Cu9 1.951       .   S
C142       H146 1.140       .   S
C152       H156 1.140       .   S
C151       C152 1.540       .   A
C147       C152 1.540       .   A
C150       C151 1.540       .   A
C151        C49 1.602   1_554   S
C149       C150 1.540       .   A
C150       H155 1.140       .   S
C157       H163 1.140       .   S
C157       C158 1.540       .   A
C157       C162 1.540       .   A
O28        Cu35 1.951       .   S
O29        Cu35 1.951       .   S
O27         C37 1.250       .   A
O27        Cu35 1.951       .   S
C158       C159 1.540       .   A
C159       C160 1.540       .   A
C159       H164 1.140       .   S
C40        C158 1.600       .   S
C140       H145 1.140       .   S
N22         C23 1.540       .   A
C21         N22 1.540       .   A
C19         N20 1.540       .   A
C15         N20 1.540       .   A
C21         N26 1.540       .   A
C25         N26 1.540       .   A
C23         N24 1.540       .   A
N24         C25 1.540       .   A
C23         C91 1.603   1_565   S
C118        C21 1.485       .   S
C25        C101 1.601   1_566   S
C12         C88 1.603       .   S
C88         C89 1.540       .   A
C87         C88 1.540       .   A
C13         C98 1.601       .   S
C98         C99 1.540       .   A
C97         C98 1.540       .   A
C167       C168 1.540       .   A
C168        C41 1.483       .   S
C168       C169 1.540       .   A
C169       C170 1.540       .   A
C169       H174 1.140       .   S
C129       H134 1.140       .   S
C167       H173 1.140       .   S
C167       C172 1.540       .   A
C132       H136 1.140       .   S
C162       H166 1.140       .   S
C161       C162 1.540       .   A
C160       H165 1.140       .   S
C160       C161 1.540       .   A
C161        C51 1.600       .   S
Cu61       Cu62 2.630       .   S
O59        Cu62 1.951       .   S
O58        Cu62 1.951       .   S
O57        Cu62 1.951       .   S
O60        Cu62 1.951       .   S
C81         C82 1.540       .   A
C82         H86 1.140       .   S
C77         C82 1.540       .   A
O59         C64 1.250       .   A
O53        Cu61 1.951       .   S
O56        Cu61 1.951       .   S
O55        Cu61 1.951       .   S
O54        Cu61 1.951       .   S
C130       H135 1.140       .   S
O53         C63 1.250       .   A
O57         C66 1.250       .   A
O56         C66 1.250       .   A
O55         C65 1.250       .   A
O54         C64 1.250       .   A
C179       C180 1.540       .   A
C180       H185 1.140       .   S
C180       C181 1.540       .   A
C65        C181 1.483       .   S
C181       C182 1.540       .   A
C51         N52 1.540       .   A
N50         C51 1.540       .   A
C77         H83 1.140       .   S
C80         H85 1.140       .   S
C79         H84 1.140       .   S
C127       H133 1.140       .   S
C37        C148 1.602       .   S
O34         C37 1.250       .   A
C178       C179 1.540       .   A
C179       H184 1.140       .   S
C178        C47 1.483       .   S
C177       C178 1.540       .   A
C171        C66 1.483       .   S
C170       C171 1.540       .   A
C171       C172 1.540       .   A
C170       H175 1.140       .   S
C120       H125 1.140       .   S
C172       H176 1.140       .   S
C117       H123 1.140       .   S
C177       H183 1.140       .   S
C177       C182 1.540       .   A
C139       H144 1.140       .   S
O58         C65 1.251       .   A
C72         H76 1.140       .   S
C69         H74 1.140       .   S
C70         H75 1.140       .   S
C67         H73 1.140       .   S
N44         C45 1.540       .   A
C45         N46 1.540       .   A
C47         N48 1.540       .   A
C47         N52 1.540       .   A
O31         C40 1.250       .   A
O30         C40 1.250       .   A
C41         N42 1.540       .   A
C41         N46 1.540       .   A
N42         C43 1.540       .   A
C131        C43 1.602   1_654   S
C43         N44 1.540       .   A
N48         C49 1.540       .   A
C49         N50 1.540       .   A
C87         H93 1.140       .   S
C89         H94 1.140       .   S
C90         H95 1.140       .   S
C92         H96 1.140       .   S
N16         C17 1.540       .   A
C15         N16 1.540       .   A
C107       H113 1.140       .   S
N18         C19 1.540       .   A
C17         N18 1.540       .   A
C112       H116 1.140       .   S
C109       H114 1.140       .   S
C110       H115 1.140       .   S
C107       C108 1.540       .   A
C108       C109 1.540       .   A
C15        C108 1.481       .   S
C109       C110 1.540       .   A
C107       C112 1.540       .   A
C100       H105 1.140       .   S
C99        C100 1.540       .   A
C100       C101 1.540       .   A
C101       C102 1.540       .   A
C102       H106 1.140       .   S
C97        C102 1.540       .   A
C79         C80 1.540       .   A
C78         C79 1.540       .   A
C19         C78 1.601       .   S
C77         C78 1.540       .   A
C70         C71 1.540       .   A
C71         C72 1.540       .   A
C17         C71 1.602   1_556   S
C69         C70 1.540       .   A
C67         C72 1.540       .   A
C99        H104 1.140       .   S
C97        H103 1.140       .   S
O60         C63 1.250       .   A
C182       H186 1.140       .   S
C119       C120 1.540       .   A
C118       C119 1.540       .   A
C117       C118 1.540       .   A
Cu9        Cu10 2.630       .   S
C111       C112 1.540       .   A
C110       C111 1.540       .   A
C80         C81 1.540       .   A
C68         C69 1.540       .   A
C89         C90 1.540       .   A
C67         C68 1.540       .   A
C11         C68 1.602       .   S
C14         C81 1.601       .   S
C64        C111 1.481       .   S
C121        C63 1.485       .   S
C117       C122 1.540       .   A
C87         C92 1.540       .   A
C148       C149 1.540       .   A
C147       C148 1.540       .   A
C128       C129 1.540       .   A
C127       C128 1.540       .   A
C129       C130 1.540       .   A
C149       H154 1.140       .   S
C122       H126 1.140       .   S
C121       C122 1.540       .   A
C120       C121 1.540       .   A
C127       C132 1.540       .   A
C137       H143 1.140       .   S
C137       C142 1.540       .   A
C90         C91 1.540       .   A
O30        Cu35 1.951       .   S
Cu35       Cu36 2.630       .   S
C130       C131 1.540       .   A
O31        Cu36 1.951       .   S
O33        Cu36 1.951       .   S
O32        Cu36 1.951       .   S
O34        Cu36 1.951       .   S
C139       C140 1.540       .   A
C131       C132 1.540       .   A
C91         C92 1.540       .   A
C147       H153 1.140       .   S
C140       C141 1.540       .   A
C141       C142 1.540       .   A
