data_ffc_v1-4c_Cu_1_Ch_v2-4c_Cu_1_Ch_v3-3c_B_Ch_1B_4H_Ch
_audit_creation_date              2020-02-03
_audit_creation_method            'tobacco_3.0'
_symmetry_space_group_name_H-M    'P1'
_symmetry_Int_Tables_number       1
_symmetry_cell_setting            triclinic
loop_
_symmetry_equiv_pos_as_xyz
  x,y,z
_cell_length_a                    33.51057798116627
_cell_length_b                    33.51072270807333
_cell_length_c                    15.726210993413488
_cell_angle_alpha                 90.00002384488847
_cell_angle_beta                  89.9999760395737
_cell_angle_gamma                 89.99999824174805
loop_
_atom_site_label
_atom_site_type_symbol
_atom_site_fract_x
_atom_site_fract_y
_atom_site_fract_z
O1         O    0.5331754117    0.0409394732   -0.0872508464
O2         O    0.5331847841   -0.0409317688    0.0872495676
O3         O    0.5331833909   -0.0409463168   -0.0872236059
O4         O    0.5331768119    0.0409540204    0.0872350448
O5         O    0.4668166161    0.0409463160    0.0872363235
O6         O    0.4668233029   -0.0409480539   -0.0872223257
O7         O    0.4668245883   -0.0409394732    0.0872508464
O8         O    0.4668152159    0.0409317688   -0.0872495676
Cu9       Cu    0.5392358615    0.0000019662    0.0000032324
Cu10      Cu    0.4607641385   -0.0000019662   -0.0000032324
C11        C    0.4999930574    0.0530067796   -0.1129808462
C12        C    0.5000069426   -0.0530067796    0.1129808462
C13        C    0.5000069442   -0.0530186089   -0.1129478630
C14        C    0.4999930558    0.0530186089    0.1129478630
C15        C    0.4999862492    0.2445734402    0.4998825480
C16        C    0.4999839082    0.2215957170    0.5846836240
C17        C    0.4999792264    0.1756402774    0.5846835747
C18        C    0.4999768855    0.1526625611    0.4998824496
C19        C    0.4999792264    0.1756402843    0.4150813736
C20        C    0.4999839083    0.2215957239    0.4150814228
H21        H    0.4999856411    0.2386051953    0.6474705398
H22        H    0.4999734198    0.1186435993    0.4998824131
H23        H    0.4999856411    0.2386052073    0.3522945434
C24        C    0.5000382804    0.7553882965    0.5001176689
C25        C    0.5000359407    0.7783659946    0.4153165620
C26        C    0.5000312612    0.8243214341    0.4153165493
C27        C    0.5000289214    0.8472991756    0.5001176436
C28        C    0.5000312612    0.8243214775    0.5849187505
C29        C    0.5000359407    0.7783660380    0.5849187631
H30        H    0.5000376727    0.7613564976    0.3525296690
H31        H    0.5000254574    0.8813181374    0.5001176342
H32        H    0.5000376727    0.7613565732    0.6477056655
O33        O    0.9590411096    0.5328980958   -0.0872493507
O34        O    1.0409127057    0.5328858460    0.0872510610
O35        O    1.0409272525    0.5328844490   -0.0872221125
O36        O    0.9590265636    0.5328994999    0.0872365405
O37        O    0.9590167464    0.4665395910    0.0872377012
O38        O    1.0409114679    0.4665246494   -0.0872209502
O39        O    1.0409028884    0.4665259371    0.0872522218
O40        O    0.9590312923    0.4665381869   -0.0872481899
Cu41      Cu    0.9999803926    0.5389477076    0.0000047377
Cu42      Cu    0.9999636054    0.4604763253   -0.0000018665
C43        C    0.9469649899    0.4997190730   -0.1129794091
C44        C    1.0529790081    0.4997049600    0.1129822803
C45        C    1.0529908363    0.4997049584   -0.1129464289
C46        C    0.9469531617    0.4997190746    0.1129493001
C47        C    0.2446393792    0.4997556875    0.5001188379
C48        C    0.2216615691    0.4997481159    0.5849199685
C49        C    0.1757059333    0.4997329726    0.5849200287
C50        C    0.1527281076    0.4997254010    0.5001189583
C51        C    0.1757059177    0.4997329726    0.4153178276
C52        C    0.2216615535    0.4997481159    0.4153177674
H53        H    0.2386711284    0.4997537209    0.6477068439
H54        H    0.1187090006    0.4997141911    0.5001190028
H55        H    0.2386711012    0.4997537209    0.3525308475
C56        C    0.7554490619    0.4998085798    0.4998837382
C57        C    0.7784268536    0.4998010058    0.5846848505
C58        C    0.8243824894    0.4997858577    0.5846848740
C59        C    0.8473603335    0.4997782837    0.4998837851
C60        C    0.8243825418    0.4997858577    0.4150826728
C61        C    0.7784269060    0.4998010058    0.4150826493
H62        H    0.7614172808    0.4998066125    0.6474717394
H63        H    0.8813794405    0.4997670702    0.4998838025
H64        H    0.7614173719    0.4998066125    0.3522957430
O65        O    0.5000570657    0.5577693413    0.5707272550
O66        O    0.5000580101    0.4419718475    0.5706791934
O67        O    0.5579577586    0.4998657907    0.5706762202
O68        O    0.4421530981    0.4998711769    0.5707302432
O69        O    0.4421398741    0.4998835923    0.4293250155
O70        O    0.5579403141    0.4998824245    0.4292712269
O71        O    0.5000447861    0.4419842629    0.4292739656
O72        O    0.5000438417    0.5577817567    0.4293220273
Cu73      Cu    0.5000592524    0.4998663072    0.5836072923
Cu74      Cu    0.5000425995    0.4998872970    0.4163939284
C75        C    0.5000510324    0.5748495388    0.5000298639
C76        C    0.5000508194    0.4249040655    0.4999713567
C77        C    0.5750213747    0.4998770146    0.4999713600
C78        C    0.4250804772    0.4998765896    0.5000298606
C189       C    0.6882031472    0.4983283344    0.4151706463
C190       C    0.7111913916    0.4998253664    0.4999052312
C191       C    0.6882234628    0.5013398293    0.5846621340
C192       C    0.6422672895    0.5013572601    0.5846844519
C193       C    0.6192790450    0.4998602280    0.4999498670
C194       C    0.6422469738    0.4983457652    0.4151929642
H195       H    0.7052053802    0.4972072385    0.3524285234
H196       H    0.7052385528    0.5024479750    0.6473850549
H197       H    0.6252650564    0.5024783560    0.6474265747
H198       H    0.6252318838    0.4972376195    0.3524700433
C179       C    0.3118644267    0.5137513759    0.4206600666
C180       C    0.2889037619    0.4997853463    0.5000970107
C181       C    0.3118992634    0.4858501089    0.5795112934
C182       C    0.3578554297    0.4858809012    0.5794886319
C183       C    0.3808160945    0.4998469309    0.5000516878
C184       C    0.3578205929    0.5137821682    0.4206374052
H185       H    0.2948417827    0.5240670711    0.3618728703
H186       H    0.2949045887    0.4755120624    0.6383127503
H187       H    0.3748780737    0.4755652061    0.6382758282
H188       H    0.3748152677    0.5241202147    0.3618359482
C169       C    0.9307975094    0.4989907328    0.2824272970
C170       C    0.9157221491    0.4997360909    0.1899329294
C171       C    0.8705924915    0.5004978243    0.1715216188
C172       C    0.8405381941    0.5005141995    0.2456046759
C173       C    0.8556135544    0.4997688414    0.3380990435
C174       C    0.9007432120    0.4990071080    0.3565103541
H175       H    0.9642051780    0.4984268523    0.2960564490
H176       H    0.8594323352    0.5010495598    0.1030570339
H177       H    0.8071305255    0.5010780800    0.2319755239
H178       H    0.9119033683    0.4984553725    0.4249749390
C159       C    0.8705798003    0.4997683040   -0.1716542174
C160       C    0.9157181753    0.4997360967   -0.1900461034
C161       C    0.9308121146    0.4997202581   -0.2825391536
C162       C    0.9007676790    0.4997366268   -0.3566403178
C163       C    0.8556293040    0.4997688340   -0.3382484317
C164       C    0.8405353647    0.4997846726   -0.2457553816
H165       H    0.8594063647    0.4997800287   -0.1031853361
H166       H    0.9642238570    0.4996964179   -0.2961556894
H167       H    0.9119411146    0.4997249021   -0.4251091991
H168       H    0.8071236223    0.4998085128   -0.2321388457
C149       C    1.1594751057    0.4997257883    0.2457003836
C150       C    1.1444071609    0.4997258286    0.3382138999
C151       C    1.0992745181    0.4997190067    0.3566635702
C152       C    1.0692098201    0.4997121444    0.2825997243
C153       C    1.0842777649    0.4997121040    0.1900862080
C154       C    1.1294104077    0.4997189259    0.1716365377
H155       H    1.1928849841    0.4997308383    0.2320428354
H156       H    1.0881198506    0.4997190364    0.4251423300
H157       H    1.0357999417    0.4997070943    0.2962572725
H158       H    1.1405650752    0.4997188963    0.1031577778
C139       C    1.0692182036    0.4996950046   -0.2824900457
C140       C    1.0842738362    0.4997120999   -0.1899674622
C141       C    1.1294040175    0.4997360608   -0.1714906166
C142       C    1.1594785661    0.4997429264   -0.2455363545
C143       C    1.1444229334    0.4997258311   -0.3380589380
C144       C    1.0992927522    0.4997018703   -0.3565357836
H145       H    1.0358101473    0.4996772673   -0.2961677106
H146       H    1.1405495715    0.4997487154   -0.1030051444
H147       H    1.1928866224    0.4997606637   -0.2318586896
H148       H    1.0881471981    0.4996892156   -0.4250212558
C129       C    0.5334813177    0.6881036450    0.4540938519
C130       C    0.5000414104    0.7110748957    0.5000961171
C131       C    0.4666047492    0.6880901683    0.5460760316
C132       C    0.4666079952    0.6421341903    0.5460536809
C133       C    0.5000479024    0.6191629396    0.5000514157
C134       C    0.5334845637    0.6421476670    0.4540715012
H135       H    0.5582331318    0.7051183133    0.4200567724
H136       H    0.4418515905    0.7050926790    0.5801281999
H137       H    0.4418561810    0.6251195219    0.5800907605
H138       H    0.5582377223    0.6251451563    0.4200193329
C119       C    0.4608736054    0.3117736515    0.5153216657
C120       C    0.5000020790    0.2887827776    0.4999043201
C121       C    0.5391470079    0.3117478790    0.4845096067
C122       C    0.5391634632    0.3577038542    0.4845322390
C123       C    0.5000349896    0.3806947280    0.4999495846
C124       C    0.4608900607    0.3577296267    0.5153442980
H125       H    0.4318961905    0.2947735115    0.5267177523
H126       H    0.5681110038    0.2947308427    0.4730972551
H127       H    0.5681408780    0.3747039941    0.4731361525
H128       H    0.4319260648    0.3747466630    0.5267566497
C109       C    0.4612561475   -0.0924864747   -0.2395884277
C110       C    0.5000131420   -0.0842817982   -0.1899547106
C111       C    0.5387760972   -0.1061438892   -0.2143808391
C112       C    0.5387820579   -0.1362106567   -0.2884406849
C113       C    0.5000250633   -0.1444153331   -0.3380744020
C114       C    0.4612621082   -0.1225532422   -0.3136482734
H115       H    0.4325614924   -0.0763028489   -0.2215067481
H116       H    0.5674651135   -0.1000715087   -0.1776429111
H117       H    0.5674767130   -0.1523942825   -0.3065223645
H118       H    0.4325730918   -0.1286256227   -0.3503862015
C99        C    0.5043564123   -0.1292408951    0.1719739107
C100       C    0.5000131434   -0.0842857656    0.1900707339
C101       C    0.4956758330   -0.0693875433    0.2822455209
C102       C    0.4956817915   -0.0994444504    0.3563234848
C103       C    0.5000250604   -0.1443995799    0.3382266616
C104       C    0.5043623708   -0.1592978022    0.2460518746
H105       H    0.5075671486   -0.1402694493    0.1037406267
H106       H    0.4924608235   -0.0361114447    0.2956436422
H107       H    0.4924710552   -0.0884158962    0.4245567688
H108       H    0.5075773803   -0.1925739008    0.2326537533
C89        C    0.5223507817    0.1044613155    0.3469371633
C90        C    0.4999827508    0.1443908451    0.3380843604
C91        C    0.4776181103    0.1542589763    0.2551618154
C92        C    0.4776215006    0.1241975777    0.1810920733
C93        C    0.4999895315    0.0842680481    0.1899448762
C94        C    0.5223541720    0.0743999170    0.2728674212
H95        H    0.5389064246    0.0971563353    0.4083213849
H96        H    0.4610606655    0.1838149845    0.2486063779
H97        H    0.4610658576    0.1315025579    0.1197078517
H98        H    0.5389116167    0.0448439087    0.2794228587
C79        C    0.5397342902    0.1008453947   -0.2242641034
C80        C    0.4999895312    0.0842719836   -0.1900607935
C81        C    0.4602413829    0.0977501174   -0.2299453258
C82        C    0.4602379936    0.1278016623   -0.3040331680
C83        C    0.4999827526    0.1443750734   -0.3382364779
C84        C    0.5397309009    0.1308969397   -0.2983519456
H85        H    0.5691582441    0.0908680749   -0.1947391899
H86        H    0.4308211956    0.0854829639   -0.2046294196
H87        H    0.4308140397    0.1377789821   -0.3335580815
H88        H    0.5691510882    0.1431640931   -0.3236678519
loop_
_geom_bond_atom_site_label_1
_geom_bond_atom_site_label_2
_geom_bond_distance
_geom_bond_site_symmetry_2
_ccdc_geom_bond_type
C171       C172 1.540       .   A
C172       C173 1.540       .   A
C172       H177 1.140       .   S
C144       H148 1.140       .   S
O8          C11 1.250       .   A
O8         Cu10 1.951       .   S
O7          C12 1.250       .   A
O7         Cu10 1.951       .   S
O6          C13 1.251       .   A
O6         Cu10 1.951       .   S
O5         Cu10 1.951       .   S
O5          C14 1.250       .   A
O4          Cu9 1.951       .   S
O4          C14 1.250       .   A
O3          C13 1.250       .   A
O3          Cu9 1.951       .   S
O2          C12 1.250       .   A
O2          Cu9 1.951       .   S
O1          C11 1.250       .   A
O1          Cu9 1.951       .   S
C141       H146 1.140       .   S
C153        C44 1.603       .   S
C152       C153 1.540       .   A
C153       C154 1.540       .   A
C152       H157 1.140       .   S
C151       C152 1.540       .   A
C151       H156 1.140       .   S
C150       C151 1.540       .   A
C149       C150 1.540       .   A
C150        C51 1.603   1_655   S
C149       C154 1.540       .   A
C154       H158 1.140       .   S
C159       C164 1.540       .   A
C159       H165 1.140       .   S
C159       C160 1.540       .   A
C139       H145 1.140       .   S
C50         H54 1.140       .   S
C52         H55 1.140       .   S
C79         C80 1.540       .   A
C80         C81 1.540       .   A
C11         C80 1.602       .   S
C48         H53 1.140       .   S
C19         C20 1.540       .   A
C20         H23 1.140       .   S
C15         C20 1.540       .   A
C26        C103 1.603   1_565   S
C26         C27 1.540       .   A
C25         C26 1.540       .   A
C27         C28 1.540       .   A
C27         H31 1.140       .   S
C24         C29 1.540       .   A
C24        C130 1.485       .   S
C24         C25 1.540       .   A
C25         H30 1.140       .   S
O72         C75 1.250       .   A
C75        C133 1.485       .   S
O65         C75 1.250       .   A
C28         C29 1.540       .   A
C28        C113 1.601   1_566   S
C29         H32 1.140       .   S
C81         C82 1.540       .   A
C81         H86 1.140       .   S
O71         C76 1.250       .   A
O66         C76 1.250       .   A
C76        C123 1.481       .   S
C134       H138 1.140       .   S
C169       C170 1.540       .   A
C169       C174 1.540       .   A
C169       H175 1.140       .   S
C129       H135 1.140       .   S
C179       C184 1.540       .   A
C184       H188 1.140       .   S
C183       C184 1.540       .   A
C132       H137 1.140       .   S
C162       H167 1.140       .   S
C162       C163 1.540       .   A
C161       C162 1.540       .   A
C163       C164 1.540       .   A
C163        C58 1.602   1_554   S
C160        C43 1.602       .   S
C160       C161 1.540       .   A
C161       H166 1.140       .   S
C89         H95 1.140       .   S
C59         H63 1.140       .   S
C57         H62 1.140       .   S
C61         H64 1.140       .   S
C56         C57 1.540       .   A
C57         C58 1.540       .   A
C56        C190 1.483       .   S
C56         C61 1.540       .   A
C179       C180 1.540       .   A
C47        C180 1.483       .   S
C180       C181 1.540       .   A
C47         C52 1.540       .   A
C51         C52 1.540       .   A
C50         C51 1.540       .   A
C49         C50 1.540       .   A
C189       H195 1.140       .   S
C189       C194 1.540       .   A
C189       C190 1.540       .   A
C59         C60 1.540       .   A
C58         C59 1.540       .   A
C194       H198 1.140       .   S
C193       C194 1.540       .   A
C82         H87 1.140       .   S
C131       H136 1.140       .   S
C79         H85 1.140       .   S
C84         H88 1.140       .   S
C179       H185 1.140       .   S
C124       H128 1.140       .   S
C170       C171 1.540       .   A
C171       H176 1.140       .   S
C170        C46 1.600       .   S
C173       C174 1.540       .   A
C173        C60 1.600       .   S
C190       C191 1.540       .   A
C174       H178 1.140       .   S
C142       H147 1.140       .   S
O40        Cu42 1.951       .   S
O40         C43 1.250       .   A
O69        Cu74 1.951       .   S
O71        Cu74 1.951       .   S
O70        Cu74 1.951       .   S
Cu73       Cu74 2.630       .   S
O72        Cu74 1.951       .   S
O68        Cu73 1.951       .   S
O66        Cu73 1.951       .   S
O67        Cu73 1.951       .   S
O65        Cu73 1.951       .   S
O39         C44 1.250       .   A
O34         C44 1.250       .   A
C140        C45 1.602       .   S
O38         C45 1.251       .   A
O35         C45 1.250       .   A
O37         C46 1.250       .   A
O36         C46 1.250       .   A
C47         C48 1.540       .   A
C192       C193 1.540       .   A
C77        C193 1.483       .   S
C192       H197 1.140       .   S
C191       C192 1.540       .   A
C191       H196 1.140       .   S
O33         C43 1.250       .   A
C48         C49 1.540       .   A
C143        C49 1.602   1_654   S
C164       H168 1.140       .   S
C91         H96 1.140       .   S
C92         H97 1.140       .   S
C94         H98 1.140       .   S
C114       H118 1.140       .   S
C111       H116 1.140       .   S
C112       H117 1.140       .   S
C109       H115 1.140       .   S
C99        C104 1.540       .   A
C104       H108 1.140       .   S
C103       C104 1.540       .   A
C113       C114 1.540       .   A
C109       C114 1.540       .   A
O70         C77 1.251       .   A
C102       H107 1.140       .   S
C101       C102 1.540       .   A
C102       C103 1.540       .   A
C79         C84 1.540       .   A
O68         C78 1.250       .   A
O69         C78 1.250       .   A
C78        C183 1.483       .   S
C16         H21 1.140       .   S
O67         C77 1.250       .   A
C18         H22 1.140       .   S
C99        H105 1.140       .   S
C101       H106 1.140       .   S
C182       H187 1.140       .   S
C181       C182 1.540       .   A
C182       C183 1.540       .   A
C181       H186 1.140       .   S
C119       C120 1.540       .   A
C119       H125 1.140       .   S
C119       C124 1.540       .   A
Cu9        Cu10 2.630       .   S
C112       C113 1.540       .   A
C111       C112 1.540       .   A
C110       C111 1.540       .   A
C13        C110 1.601       .   S
C109       C110 1.540       .   A
C140       C141 1.540       .   A
C139       C140 1.540       .   A
C141       C142 1.540       .   A
C82         C83 1.540       .   A
C60         C61 1.540       .   A
C83         C17 1.602   1_554   S
C83         C84 1.540       .   A
C129       C134 1.540       .   A
C129       C130 1.540       .   A
C89         C90 1.540       .   A
C89         C94 1.540       .   A
C122       H127 1.140       .   S
C122       C123 1.540       .   A
C121       C122 1.540       .   A
C123       C124 1.540       .   A
C120       C121 1.540       .   A
C15        C120 1.481       .   S
C121       H126 1.140       .   S
C12        C100 1.603       .   S
C99        C100 1.540       .   A
C100       C101 1.540       .   A
C18         C19 1.540       .   A
C19         C90 1.601       .   S
C17         C18 1.540       .   A
C16         C17 1.540       .   A
C15         C16 1.540       .   A
C14         C93 1.601       .   S
C92         C93 1.540       .   A
C93         C94 1.540       .   A
C133       C134 1.540       .   A
C91         C92 1.540       .   A
C90         C91 1.540       .   A
C130       C131 1.540       .   A
C131       C132 1.540       .   A
C132       C133 1.540       .   A
C139       C144 1.540       .   A
C149       H155 1.140       .   S
O39        Cu42 1.951       .   S
O38        Cu42 1.951       .   S
C142       C143 1.540       .   A
C143       C144 1.540       .   A
O33        Cu41 1.951       .   S
O35        Cu41 1.951       .   S
O34        Cu41 1.951       .   S
O37        Cu42 1.951       .   S
O36        Cu41 1.951       .   S
Cu41       Cu42 2.630       .   S
