data_hwx_v1-6c_Zn_1_Ch_v2-3c_triazine_Ch_1B_4H_Ch
_audit_creation_date              2020-02-03
_audit_creation_method            'tobacco_3.0'
_symmetry_space_group_name_H-M    'P1'
_symmetry_Int_Tables_number       1
_symmetry_cell_setting            triclinic
loop_
_symmetry_equiv_pos_as_xyz
  x,y,z
_cell_length_a                    37.284108511705575
_cell_length_b                    37.28396001787717
_cell_length_c                    15.838704226631478
_cell_angle_alpha                 90.1210473084505
_cell_angle_beta                  89.87899971517405
_cell_angle_gamma                 89.99829217800449
loop_
_atom_site_label
_atom_site_type_symbol
_atom_site_fract_x
_atom_site_fract_y
_atom_site_fract_z
C1         C    0.5087636335    0.2457071215   -0.0043096824
N2         N    0.5309254654    0.2480255054   -0.0862710453
C3         C    0.5719618319    0.2523183839   -0.0819613630
N4         N    0.5908363665    0.2542928785    0.0043096824
C5         C    0.5686745346    0.2519744946    0.0862710453
N6         N    0.5276381681    0.2476816161    0.0819613630
Zn7       Zn    0.7677150471    0.2462838938    0.4811737919
Zn8       Zn    0.7340413472    0.2758855390    0.3113420046
Zn9       Zn    0.7076834409    0.3064867380    0.4878349595
Zn10      Zn    0.7855574363    0.3252756729    0.4202546959
O11        O    0.7487493179    0.2884829609    0.4251513630
O12        O    0.7668129675    0.2043789141    0.4103355763
O13        O    0.6839022803    0.2844628467    0.2919754564
O14        O    0.6971566733    0.2782722658    0.5862302419
O15        O    0.7420652608    0.2261339584    0.2855216334
O16        O    0.7412755134    0.2340275784    0.5813347709
O17        O    0.6645311469    0.3069524899    0.4216848703
O18        O    0.7716753672    0.3686137321    0.4775408454
O19        O    0.7593522635    0.3026669317    0.2264987882
O20        O    0.7144436760    0.3548052391    0.5272073966
O21        O    0.7972128213    0.3389650679    0.3065416509
O22        O    0.8298383477    0.3102848438    0.4710870224
O23        O    0.8167254966    0.2522316634    0.5158581027
C24        C    0.7555521618    0.2009317387    0.3328221573
C25        C    0.6596365185    0.2971209779    0.3434650538
C26        C    0.7134387537    0.2498248779    0.6148142010
C27        C    0.7419464739    0.3760341832    0.5174805686
C28        C    0.7840598821    0.3271410439    0.2354885249
C29        C    0.8378621172    0.2798449440    0.5068376721
C30        C    0.7911614601    0.5284929395    0.9204070176
N31        N    0.7891170120    0.5096160208    1.0066665378
C32        C    0.7846742608    0.4685949466    1.0109512598
N33        N    0.7822759576    0.4464507910    0.9289764616
C34        C    0.7843204056    0.4653277096    0.8427169414
N35        N    0.7887631568    0.5063487838    0.8384322194
C36        C    0.7585359554    1.0285720200    0.3772846414
N37        N    0.7609405196    1.0065075863    0.4591579547
C38        C    0.7654111257    0.9654850212    0.4546848134
N39        N    0.7674771675    0.9465268898    0.3683383587
C40        C    0.7650726033    0.9685913235    0.2864650453
N41        N    0.7606019973    1.0096138887    0.2909381867
Zn42      Zn    0.7610193406    0.7719322989    0.8915260804
Zn43      Zn    0.7902073217    0.8029041077    0.7181807512
Zn44      Zn    0.8211475720    0.8320896820    0.8915597971
Zn45      Zn    0.8399042512    0.7532195419    0.8304907950
O46        O    0.8030696214    0.7900364076    0.8329393559
O47        O    0.7189624438    0.7716577987    0.8215729159
O48        O    0.7986700732    0.8527046554    0.6942094438
O49        O    0.7931294583    0.8441461799    0.9895799085
O50        O    0.7404134752    0.7944198130    0.6941767767
O51        O    0.7489396057    0.7999349030    0.9895551292
O52        O    0.8214088944    0.8741539179    0.8216303623
O53        O    0.8833436769    0.7680521170    0.8855632405
O54        O    0.8168429064    0.7762895348    0.6350413588
O55        O    0.8695588895    0.8260159017    0.9304444906
O56        O    0.8533665150    0.7397750127    0.7175810271
O57        O    0.8250870789    0.7097672746    0.8855305733
O58        O    0.7671124389    0.7235197824    0.9303870442
C59        C    0.7153329137    0.7816699230    0.7431905989
C60        C    0.8114029402    0.8777865268    0.7432444698
C61        C    0.7647677732    0.8283012447    1.0202073871
C62        C    0.8908063290    0.7984028921    0.9226881129
C63        C    0.8413714695    0.7517715705    0.6456713248
C64        C    0.7947363025    0.7022862884    0.9226342420
C65        C    0.0417074537    0.7455600710    0.2885890496
N66        N    0.0227486467    0.7476402311    0.3749327516
C67        C   -0.0182705877    0.7521408610    0.3793999104
N68        N   -0.0403310151    0.7545613308    0.2975233673
C69        C   -0.0213722080    0.7524811707    0.2111796653
N70        N    0.0196470264    0.7479805408    0.2067125065
C71        C    0.2904534264   -0.0022531276    0.2109827820
N72        N    0.2885492823    0.0167264609    0.2973230297
C73        C    0.2844299478    0.0577859974    0.3017826897
N74        N    0.2822147574    0.0798659455    0.2199021020
C75        C    0.2841189015    0.0608863570    0.1335618543
N76        N    0.2882382360    0.0198268205    0.1291021943
Zn77      Zn    0.2661913937    0.2225295018    0.9462025410
Zn78      Zn    0.2936315181    0.2552463047    0.7730689880
Zn79      Zn    0.2335230316    0.1950691925    0.7730356274
Zn80      Zn    0.2153746044    0.2732993286    0.8394835714
O81        O    0.2521801369    0.2365360819    0.8329476820
O82        O    0.3162136181    0.2307995006    0.9678964261
O83        O    0.3047286205    0.2282384157    0.6728792428
O84        O    0.2339672934    0.1523142243    0.8405990873
O85        O    0.3363801027    0.2548439580    0.8406559269
O86        O    0.2579761503    0.1724955433    0.9678641040
O87        O    0.2605532791    0.1840126394    0.6728547253
O88        O    0.1713945302    0.2589971488    0.7860363769
O89        O    0.2871451061    0.3040334539    0.7372588375
O90        O    0.1847322968    0.2015037202    0.7372019978
O91        O    0.2296319980    0.3173011061    0.7860686990
O92        O    0.2030460123    0.2856026911    0.9538130610
O93        O    0.2403926359    0.2482905815    1.0322436987
C94        C    0.3407957002    0.2440513384    0.9182295782
C95        C    0.2885997459    0.2001765631    0.6415517250
C96        C    0.2447572211    0.1479032125    0.9181762764
C97        C    0.1635645737    0.2290208255    0.7476657857
C98        C    0.2596030528    0.3251689513    0.7477190876
C99        C    0.2157605280    0.2728956008    1.0243436389
C100       C    0.0126411697    0.2755330236    0.4548837881
N101       N    0.0347104371    0.2732557900    0.5367705461
C102       C    0.0757582115    0.2690202453    0.5323223170
N103       N    0.0947367185    0.2670619341    0.4459873299
C104       C    0.0726674510    0.2693391677    0.3641005719
N105       N    0.0316196766    0.2735747124    0.3685488010
C106       C    0.2603633386    0.4947467657    0.6701681379
N107       N    0.2625988179    0.5169138908    0.7521349574
C108       C    0.2667388150    0.5579663113    0.7478354075
N109       N    0.2686433329    0.5768516066    0.6615690380
C110       C    0.2664078536    0.5546844815    0.5796022185
N111       N    0.2622678565    0.5136320611    0.5839017684
Zn112     Zn    0.2898222673    0.7205849263    0.3545590193
Zn113     Zn    0.2602985650    0.7541746352    0.1845594522
Zn114     Zn    0.3392572104    0.7720583126    0.2456468152
Zn115     Zn    0.3205136480    0.6941496578    0.1782164571
O116       O    0.3024729227    0.7352418830    0.2407454360
O117       O    0.2400571613    0.7286127930    0.3802239002
O118       O    0.2662555630    0.8031699279    0.1497645972
O119       O    0.3528890998    0.7837689732    0.3593672700
O120       O    0.2183593993    0.7532987724    0.2552866515
O121       O    0.3165580321    0.7459397988    0.4394097746
O122       O    0.3242843926    0.8163131229    0.1946593413
O123       O    0.3688499913    0.7008994016    0.1389574053
O124       O    0.2480954383    0.7276863642    0.0844331684
O125       O    0.3826251388    0.7581565649    0.1885137869
O126       O    0.2923491204    0.6835723958    0.0797715308
O127       O    0.3209538276    0.6510282461    0.2444794595
O128       O    0.2983979075    0.6704562350    0.3740783457
C129       C    0.2148761261    0.7420735455    0.3328200720
C130       C    0.2938609254    0.8243152725    0.1588053357
C131       C    0.3410324918    0.7706472343    0.4304225533
C132       C    0.3900697193    0.7284102204    0.1486707999
C133       C    0.2639133535    0.6998365317    0.0510683186
C134       C    0.3110849199    0.6461684935    0.3226855362
C135       C    0.5420650713    0.7781027379    0.7455314691
N136       N    0.5199225602    0.7756790536    0.8275042769
C137       C    0.4789068071    0.7711895340    0.8232158578
N138       N    0.4600335652    0.7691236987    0.7369546310
C139       C    0.4821760763    0.7715473831    0.6549818232
N140       N    0.5231918294    0.7760369027    0.6592702422
C371       C    0.4486668202    0.7745800442    0.5004064581
C372       C    0.4457922101    0.7713153435    0.5970951366
C373       C    0.4087296739    0.7678326080    0.6393908667
C374       C    0.3745417479    0.7676145732    0.5849979183
C375       C    0.3774163581    0.7708792738    0.4883092398
C376       C    0.4144788942    0.7743620093    0.4460135097
H377       H    0.4761027236    0.7771581731    0.4690966319
H378       H    0.4066007248    0.7654159779    0.7109608214
H379       H    0.3471058445    0.7650364443    0.6163077445
H380       H    0.4166078434    0.7767786394    0.3744435550
C361       C    0.4538817905    0.7437102051    0.0704579679
C362       C    0.4128699497    0.7393896237    0.0651420861
C363       C    0.3934764224    0.7454792958   -0.0193725529
C364       C    0.4150947358    0.7558895494   -0.0985713101
C365       C    0.4561065766    0.7602101308   -0.0932554283
C366       C    0.4755001039    0.7541204586   -0.0087407893
H367       H    0.4682380380    0.7392022660    0.1330207526
H368       H    0.3631189899    0.7422814095   -0.0233100244
H369       H    0.4007384883    0.7603974885   -0.1611340948
H370       H    0.5058575365    0.7573183449   -0.0048033179
C351       C    0.2823057965    0.5604035702    0.4323303917
C352       C    0.2763884800    0.5751215384    0.5222083555
C353       C    0.2828290703    0.6151444557    0.5410218412
C354       C    0.2951869771    0.6404494048    0.4699573630
C355       C    0.3011042935    0.6257314366    0.3800793991
C356       C    0.2946637032    0.5857085193    0.3612659135
H357       H    0.2775380868    0.5307762159    0.4184035257
H358       H    0.2784492975    0.6260399100    0.6075497860
H359       H    0.2999546868    0.6700767592    0.4838842289
H360       H    0.2990434760    0.5748130650    0.2947379687
C341       C    0.2342742039    0.6248075342    0.8361995407
C342       C    0.2659356980    0.5982918946    0.8340271678
C343       C    0.2969875784    0.6023857820    0.8972794902
C344       C    0.2963779646    0.6329953088    0.9627041854
C345       C    0.2647164705    0.6595109483    0.9648765583
C346       C    0.2336645901    0.6554170610    0.9016242359
H347       H    0.2112877470    0.6217769942    0.7893763929
H348       H    0.3204242866    0.5827591294    0.8956735093
H349       H    0.3193644215    0.6360258488    1.0095273332
H350       H    0.2102278820    0.6750437136    0.9032302168
C331       C    0.1374982303    0.2915163901    1.1113024634
C332       C    0.1733202919    0.2718407918    1.1251127660
C333       C    0.1800360510    0.2514417859    1.2080324080
C334       C    0.1509297487    0.2507183783    1.2771417474
C335       C    0.1151076871    0.2703939766    1.2633314448
C336       C    0.1083919279    0.2907929825    1.1804118028
H337       H    0.1325268242    0.3066169530    1.0499203907
H338       H    0.2065516262    0.2368773323    1.2182573690
H339       H    0.1559011548    0.2356178155    1.3385238201
H340       H    0.0818763528    0.3053574361    1.1701868418
C321       C    0.1436477075    0.2767062334    0.6849350530
C322       C    0.1469010454    0.2366117500    0.7067987927
C323       C    0.1229147305    0.2089260520    0.6618577910
C324       C    0.0956750777    0.2213348374    0.5950530497
C325       C    0.0924217399    0.2614293208    0.5731893100
C326       C    0.1164080548    0.2891150188    0.6181303117
H327       H    0.1614038108    0.2972008410    0.7182030672
H328       H    0.1253220805    0.1792473817    0.6780398312
H329       H    0.0779189745    0.2008402298    0.5617850355
H330       H    0.1140007047    0.3187936891    0.6019482715
C311       C    0.2528022664    0.3964800903    0.7992526105
C312       C    0.2598014803    0.3694271887    0.7274790087
C313       C    0.2669824096    0.3829049569    0.6371700109
C314       C    0.2671641250    0.4234356267    0.6186346149
C315       C    0.2601649111    0.4504885284    0.6904082167
C316       C    0.2529839818    0.4370107602    0.7807172146
H317       H    0.2474865136    0.3865030411    0.8661047258
H318       H    0.2721634301    0.3628809217    0.5840405878
H319       H    0.2724798778    0.4334126759    0.5517824996
H320       H    0.2478029613    0.4570347953    0.8338466376
C301       C    0.3077881036   -0.1131971789    0.2543181454
C302       C    0.2929622362   -0.1299441090    0.1725665457
C303       C    0.2773313084   -0.1057158577    0.1031424591
C304       C    0.2765262481   -0.0647406762    0.1154699723
C305       C    0.2913521156   -0.0479937461    0.1972215720
C306       C    0.3069830434   -0.0722219975    0.2666456585
H307       H    0.3193590502   -0.1311323780    0.3057100016
H308       H    0.2663567593   -0.1181111090    0.0426280185
H309       H    0.2649553016   -0.0468054771    0.0640781160
H310       H    0.3179575925   -0.0598267461    0.3271600991
C291       C    0.2880555641    0.1168693074    0.0999789607
C292       C    0.2767135509    0.0772573634    0.0930400651
C293       C    0.2530960481    0.0647828408    0.0189301697
C294       C    0.2408205585    0.0919202622   -0.0482408301
C295       C    0.2521625717    0.1315322061   -0.0413019345
C296       C    0.2757800745    0.1440067287    0.0328079609
H297       H    0.3055386506    0.1261036942    0.1548395326
H298       H    0.2446999828    0.0354618259    0.0137916785
H299       H    0.2233374720    0.0826858753   -0.1031014020
H300       H    0.2841761398    0.1733277436    0.0379464521
C281       C    0.2711948417    0.1378102271    0.3839164606
C282       C    0.2856646764    0.0999495983    0.4023924874
C283       C    0.3009846816    0.0911206515    0.4901432342
C284       C    0.3018348520    0.1201523334    0.5594179542
C285       C    0.2873650173    0.1580129622    0.5409419274
C286       C    0.2720450122    0.1668419090    0.4531911806
H287       H    0.2598540587    0.1443459409    0.3189581155
H288       H    0.3116956866    0.0630960693    0.5038219006
H289       H    0.3131756351    0.1136166196    0.6243762992
H290       H    0.2613340071    0.1948664912    0.4395125142
C271       C    0.1105243630    0.7231045692    0.2377025441
C272       C    0.0872455484    0.7446432208    0.3002204634
C273       C    0.1050129754    0.7653554598    0.3732224801
C274       C    0.1460592169    0.7645290473    0.3837065775
C275       C    0.1693380314    0.7429903957    0.3211886582
C276       C    0.1515706044    0.7222781567    0.2481866415
H277       H    0.0973718521    0.7077721325    0.1836620903
H278       H    0.0877826419    0.7812989487    0.4195003320
H279       H    0.1592117277    0.7798614840    0.4377470313
H280       H    0.1688009379    0.7063346678    0.2019087896
C261       C    0.6498193447    0.7629484712    0.8176044443
C262       C    0.6699949724    0.7807365194    0.7438031202
C263       C    0.6488746202    0.7976743788    0.6705597099
C264       C    0.6075786403    0.7968241898    0.6711176237
C265       C    0.5874030126    0.7790361415    0.7449189478
C266       C    0.6085233648    0.7620982822    0.8181623581
H267       H    0.6654538911    0.7504100558    0.8718235922
H268       H    0.6638078797    0.8108415649    0.6159299141
H269       H    0.5919440939    0.8093626052    0.6168984759
H270       H    0.5935901053    0.7489310961    0.8727921539
C251       C    0.9704980412    0.7944382438    1.0858124957
C252       C    0.9577005526    0.7634239952    1.1424341495
C253       C    0.9219195720    0.7444277829    1.1235555429
C254       C    0.8989360798    0.7564458191    1.0480552825
C255       C    0.9117335684    0.7874600677    0.9914336287
C256       C    0.9475145490    0.8064562800    1.0103122353
H257       H    0.9969852606    0.8085003750    1.0997875681
H258       H    0.9124457841    0.7214705451    1.1654660923
H259       H    0.8724488604    0.7423836879    1.0340802101
H260       H    0.9569883369    0.8294135178    0.9684016859
C241       C    0.8797763716    0.7775401055    0.4975652367
C242       C    0.8793564534    0.7518715114    0.5736104554
C243       C    0.9111305227    0.7262876217    0.5885808362
C244       C    0.9433245101    0.7263723261    0.5275059985
C245       C    0.9437444284    0.7520409202    0.4514607798
C246       C    0.9119703591    0.7776248098    0.4364903990
H247       H    0.8562553074    0.7964788290    0.4864832664
H248       H    0.9108207062    0.7072870099    0.6448697106
H249       H    0.9668455744    0.7074336025    0.5385879688
H250       H    0.9122801756    0.7966254216    0.3802015246
C231       C    0.7485041151    0.8624467158    0.1811490734
C232       C    0.7648502470    0.8662576425    0.0922451368
C233       C    0.7812663202    0.9022572107    0.0644322796
C234       C    0.7813362615    0.9344458524    0.1255233590
C235       C    0.7649901296    0.9306349257    0.2144272956
C236       C    0.7485740563    0.8946353575    0.2422401528
H237       H    0.7363519570    0.8357976848    0.2017378118
H238       H    0.7933661885    0.9050791844   -0.0013749785
H239       H    0.7934884196    0.9610948834    0.1049346206
H240       H    0.7364741881    0.8918133838    0.3080474109
C221       C    0.7985503623    0.9103104100    0.5084538268
C222       C    0.7763686964    0.9445908150    0.5234342829
C223       C    0.7662253670    0.9559161790    0.6139450977
C224       C    0.7782637036    0.9329611380    0.6894754564
C225       C    0.8004453695    0.8986807330    0.6744950003
C226       C    0.8105886988    0.8873553690    0.5839841855
H227       H    0.8060590607    0.9019266989    0.4414523146
H228       H    0.7498062558    0.9812907714    0.6250364424
H229       H    0.7707550052    0.9413448490    0.7564769686
H230       H    0.8270078101    0.8619807766    0.5728928408
C211       C    0.7888782928    0.5946970217    1.0050394790
C212       C    0.7920994390    0.5740934111    0.9209914041
C213       C    0.7961700275    0.5947860034    0.8374725548
C214       C    0.7970194698    0.6360822062    0.8380017806
C215       C    0.7937983236    0.6566858167    0.9220498555
C216       C    0.7897277350    0.6359932245    1.0055687047
H217       H    0.7858649999    0.5793791287    1.0668651207
H218       H    0.7985544374    0.5795359390    0.7752578253
H219       H    0.8000327626    0.6514000992    0.7761761389
H220       H    0.7873433252    0.6512432889    1.0677834342
C201       C    0.9004108457    0.2628562614    0.4115191641
C202       C    0.8842733561    0.2786999466    0.4930417161
C203       C    0.9091141539    0.2935326690    0.5623832821
C204       C    0.9500924413    0.2925217062    0.5502022961
C205       C    0.9662299308    0.2766780211    0.4686797442
C206       C    0.9413891330    0.2618452987    0.3993381782
H207       H    0.8820222031    0.2518761942    0.3601883945
H208       H    0.8971700277    0.3052605778    0.6227281797
H209       H    0.9684810838    0.3035017734    0.6015330657
H210       H    0.9533332592    0.2501173898    0.3389932805
C191       C    0.7816070175    0.3845483923    0.6617019129
C192       C    0.7528255116    0.3989593073    0.6009814057
C193       C    0.7343519339    0.4350918613    0.6193782478
C194       C    0.7446598620    0.4568135005    0.6984955971
C195       C    0.7734413679    0.4424025855    0.7592161043
C196       C    0.7919149457    0.4062700314    0.7408192623
H197       H    0.7952822634    0.3578009172    0.6480834714
H198       H    0.7130473808    0.4457599129    0.5744337263
H199       H    0.7309846161    0.4835609756    0.7121140386
H200       H    0.8132194987    0.3956019799    0.7857637837
C181       C    0.7606649606    0.3958807268    0.2028187003
C182       C    0.7842184746    0.3636552073    0.1775276611
C183       C    0.8079205854    0.3656424758    0.0979288531
C184       C    0.8080691823    0.3998552637    0.0436210843
C185       C    0.7845156683    0.4320807832    0.0689121236
C186       C    0.7608135575    0.4300935148    0.1485109316
H187       H    0.7431192422    0.3944096320    0.2617424932
H188       H    0.8253555628    0.3417893237    0.0792059966
H189       H    0.8256149006    0.4013263585   -0.0153027086
H190       H    0.7433785801    0.4539466669    0.1672337880
C171       C    0.7923396926    0.1355636503    0.3427254346
C172       C    0.7563335334    0.1557955770    0.3444656311
C173       C    0.7210378994    0.1349838061    0.3567935959
C174       C    0.7217484246    0.0939401085    0.3673813641
C175       C    0.7577545838    0.0737081817    0.3656411676
C176       C    0.7930502178    0.0945199526    0.3533132028
H177       H    0.8184676294    0.1509697664    0.3335995386
H178       H    0.6943851514    0.1499587478    0.3580820733
H179       H    0.6956204878    0.0785339924    0.3765072601
H180       H    0.8197029658    0.0795450110    0.3520247254
C161       C    0.5732261392    0.2777475900    0.2257770367
C162       C    0.5889793005    0.2620522077    0.1436825475
C163       C    0.6299086879    0.2588523539    0.1327735604
C164       C    0.6550849139    0.2713478824    0.2039590625
C165       C    0.6393317526    0.2870432648    0.2860535517
C166       C    0.5984023652    0.2902431186    0.2969625388
H167       H    0.5429277615    0.2801163130    0.2338525206
H168       H    0.6415704173    0.2472345864    0.0720071660
H169       H    0.6853832916    0.2689791595    0.1958835785
H170       H    0.5867406359    0.3018608861    0.3577289331
C151       C    0.6512724996    0.2472939931   -0.1389383151
C152       C    0.6121282290    0.2516104582   -0.1680491358
C153       C    0.6035560221    0.2553880960   -0.2626844017
C154       C    0.6341280859    0.2548492687   -0.3282088468
C155       C    0.6732723565    0.2505328037   -0.2990980261
C156       C    0.6818445634    0.2467551659   -0.2044627602
H157       H    0.6576181592    0.2444975600   -0.0688836378
H158       H    0.5745813009    0.2585832476   -0.2842351227
H159       H    0.6277824263    0.2576457019   -0.3982635241
H160       H    0.7108192846    0.2435600142   -0.1829120393
C141       C    0.4506290201    0.2649231385   -0.1024380771
C142       C    0.4652961981    0.2452786311   -0.0243552924
C143       C    0.4394468448    0.2252347225    0.0350427327
C144       C    0.3989303135    0.2248353214    0.0163579730
C145       C    0.3842631356    0.2444798288   -0.0617248118
C146       C    0.4101124888    0.2645237373   -0.1211228368
H147       H    0.4697642557    0.2797608370   -0.1464080437
H148       H    0.4503026198    0.2106932937    0.0928412122
H149       H    0.3797950780    0.2099976228    0.0603279395
H150       H    0.3992567139    0.2790651662   -0.1789213163
loop_
_geom_bond_atom_site_label_1
_geom_bond_atom_site_label_2
_geom_bond_distance
_geom_bond_site_symmetry_2
_ccdc_geom_bond_type
C171       C176 1.540       .   A
C175       C176 1.540       .   A
C176       H180 1.140       .   S
O22         C29 1.304       .   A
Zn10        O22 1.922       .   S
O23         C29 1.304       .   A
Zn7         O23 1.922       .   S
Zn9         O20 1.922       .   S
O20         C27 1.304       .   A
O21         C28 1.304       .   A
Zn10        O21 1.922       .   S
C242       C243 1.540       .   A
C243       H248 1.140       .   S
C243       C244 1.540       .   A
C241       C242 1.540       .   A
C242        C63 1.817       .   S
C241       C246 1.540       .   A
C241       H247 1.140       .   S
C246       H250 1.140       .   S
C245       C246 1.540       .   A
C245        C67 1.817   1_655   S
C244       C245 1.540       .   A
C244       H249 1.140       .   S
C144       H149 1.140       .   S
C344       H349 1.140       .   S
C343       H348 1.140       .   S
C321       C326 1.540       .   A
C326       H330 1.140       .   S
C325       C326 1.540       .   A
C336       H340 1.140       .   S
C341       H347 1.140       .   S
Zn42        O58 1.922       .   S
O58         C64 1.304       .   A
O53         C62 1.304       .   A
Zn45        O53 1.922       .   S
Zn44        O52 1.922       .   S
O52         C60 1.304       .   A
Zn42        O51 1.922       .   S
O51         C61 1.304       .   A
Zn43        O50 1.922       .   S
O50         C59 1.304       .   A
O57         C64 1.304       .   A
Zn45        O57 1.922       .   S
Zn45        O56 1.922       .   S
O56         C63 1.304       .   A
O55         C62 1.304       .   A
Zn44        O55 1.922       .   S
Zn43        O54 1.922       .   S
O54         C63 1.304       .   A
C106       N111 1.540       .   A
C110       N111 1.540       .   A
C203       H208 1.140       .   S
C204       H209 1.140       .   S
C201       H207 1.140       .   S
C196       H200 1.140       .   S
C40         N41 1.540       .   A
N39         C40 1.540       .   A
C40        C235 1.816       .   S
C286       H290 1.140       .   S
C291       H297 1.140       .   S
C294       H299 1.140       .   S
C293       H298 1.140       .   S
C342       C343 1.540       .   A
C341       C342 1.540       .   A
C342       C108 2.029       .   S
C343       C344 1.540       .   A
C341       C346 1.540       .   A
C346       H350 1.140       .   S
C345       C346 1.540       .   A
C344       C345 1.540       .   A
C345       C133 2.029   1_556   S
C285       C286 1.540       .   A
C281       C286 1.540       .   A
C284       C285 1.540       .   A
C285        C95 2.237       .   S
C283       C284 1.540       .   A
C284       H289 1.140       .   S
C282       C283 1.540       .   A
C283       H288 1.140       .   S
C282        C73 2.237       .   S
C281       C282 1.540       .   A
C281       H287 1.140       .   S
C184       H189 1.140       .   S
C183       H188 1.140       .   S
C181       H187 1.140       .   S
N109       C110 1.540       .   A
C110       C352 1.244       .   S
O88         C97 1.304       .   A
Zn80        O88 1.922       .   S
Zn78        O89 1.922       .   S
O89         C98 1.304       .   A
Zn79        O84 1.922       .   S
O84         C96 1.304       .   A
Zn78        O85 1.922       .   S
O85         C94 1.304       .   A
O86         C96 1.304       .   A
Zn77        O86 1.922       .   S
Zn79        O87 1.922       .   S
O87         C95 1.304       .   A
Zn79        O81 1.942       .   S
Zn78        O81 1.942       .   S
Zn80        O81 1.942       .   S
Zn77        O81 1.942       .   S
Zn77        O82 1.922       .   S
O82         C94 1.304       .   A
Zn78        O83 1.922       .   S
O83         C95 1.304       .   A
C376       H380 1.140       .   S
Zn9         O17 1.922       .   S
O17         C25 1.304       .   A
O16         C26 1.304       .   A
Zn7         O16 1.922       .   S
Zn8         O15 1.922       .   S
O15         C24 1.304       .   A
Zn9         O14 1.922       .   S
O14         C26 1.304       .   A
Zn8         O13 1.922       .   S
O13         C25 1.304       .   A
Zn7         O12 1.922       .   S
O12         C24 1.304       .   A
Zn9         O11 1.942       .   S
Zn8         O11 1.942       .   S
Zn7         O11 1.942       .   S
Zn10        O11 1.942       .   S
O19         C28 1.304       .   A
Zn8         O19 1.922       .   S
O18         C27 1.304       .   A
Zn10        O18 1.922       .   S
C232       C233 1.540       .   A
C231       C232 1.540       .   A
C61        C232 1.816   1_556   S
C233       H238 1.140       .   S
C233       C234 1.540       .   A
C231       H237 1.140       .   S
C231       C236 1.540       .   A
C236       H240 1.140       .   S
C235       C236 1.540       .   A
C234       H239 1.140       .   S
C234       C235 1.540       .   A
O126       C133 1.304       .   A
Zn115      O126 1.922       .   S
O127       C134 1.304       .   A
Zn115      O127 1.922       .   S
Zn113      O124 1.922       .   S
O124       C133 1.304       .   A
O125       C132 1.304       .   A
Zn114      O125 1.922       .   S
O122       C130 1.304       .   A
Zn114      O122 1.922       .   S
Zn115      O123 1.922       .   S
O123       C132 1.304       .   A
Zn113      O120 1.922       .   S
O120       C129 1.304       .   A
Zn112      O121 1.922       .   S
O121       C131 1.304       .   A
Zn112      O128 1.922       .   S
O128       C134 1.304       .   A
C331       H337 1.140       .   S
C36         N41 1.540       .   A
C333       H338 1.140       .   S
C334       H339 1.140       .   S
C251       H257 1.140       .   S
C153       H158 1.140       .   S
C154       H159 1.140       .   S
C151       H157 1.140       .   S
C254       H259 1.140       .   S
C106       N107 1.540       .   A
C106       C315 1.682       .   S
C146       H150 1.140       .   S
C305       C306 1.540       .   A
C306       H310 1.140       .   S
C301       C306 1.540       .   A
C304       C305 1.540       .   A
C303       C304 1.540       .   A
C304       H309 1.140       .   S
C305        C71 1.719       .   S
C130       C302 1.719   1_565   S
C302       C303 1.540       .   A
C301       C302 1.540       .   A
C303       H308 1.140       .   S
C301       H307 1.140       .   S
C38         N39 1.540       .   A
C38        C222 1.402       .   S
N37         C38 1.540       .   A
C195        C34 1.625       .   S
N33         C34 1.540       .   A
C34         N35 1.540       .   A
C175        C36 1.694   1_545   S
C36         N37 1.540       .   A
C30         N31 1.540       .   A
C30         N35 1.540       .   A
C30        C212 1.701       .   S
N31         C32 1.540       .   A
C32         N33 1.540       .   A
C185        C32 1.644   1_554   S
C152       C153 1.540       .   A
C153       C154 1.540       .   A
C152         C3 2.023       .   S
C151       C152 1.540       .   A
C151       C156 1.540       .   A
C156       H160 1.140       .   S
C155       C156 1.540       .   A
C26        C155 2.023   1_556   S
C154       C155 1.540       .   A
C275       C276 1.540       .   A
C276       H280 1.140       .   S
C271       C276 1.540       .   A
C274       C275 1.540       .   A
C273       C274 1.540       .   A
C274       H279 1.140       .   S
C129       C275 1.709       .   S
C272        C65 1.709       .   S
C272       C273 1.540       .   A
C271       C272 1.540       .   A
C273       H278 1.140       .   S
C271       H277 1.140       .   S
C371       H377 1.140       .   S
C366       H370 1.140       .   S
C373       H378 1.140       .   S
C374       H379 1.140       .   S
Zn43        O48 1.922       .   S
O48         C60 1.304       .   A
Zn44        O49 1.922       .   S
O49         C61 1.304       .   A
Zn42        O46 1.942       .   S
Zn43        O46 1.942       .   S
Zn44        O46 1.942       .   S
Zn45        O46 1.942       .   S
Zn42        O47 1.922       .   S
O47         C59 1.304       .   A
N107       C108 1.540       .   A
C213       H218 1.140       .   S
C104       N105 1.540       .   A
C100       N105 1.540       .   A
N103       C104 1.540       .   A
C102       N103 1.540       .   A
C100       N101 1.540       .   A
N101       C102 1.540       .   A
C206       H210 1.140       .   S
C108       N109 1.540       .   A
C71         N76 1.540       .   A
C71         N72 1.540       .   A
C73         N74 1.540       .   A
N72         C73 1.540       .   A
N74         C75 1.540       .   A
C75         N76 1.540       .   A
C292        C75 0.929       .   S
C354       C355 1.540       .   A
C355       C356 1.540       .   A
C134       C355 1.244       .   S
C354       H359 1.140       .   S
C353       C354 1.540       .   A
C356       H360 1.140       .   S
C351       C356 1.540       .   A
C263       H268 1.140       .   S
C264       H269 1.140       .   S
C353       H358 1.140       .   S
C352       C353 1.540       .   A
C351       C352 1.540       .   A
C261       H267 1.140       .   S
C256       H260 1.140       .   S
C253       H258 1.140       .   S
O117       C129 1.304       .   A
C322        C97 0.942       .   S
O90         C97 1.304       .   A
C295        C96 0.929   1_554   S
C145        C94 1.652   1_554   S
C332        C99 2.246       .   S
O93         C99 1.304       .   A
O92         C99 1.304       .   A
C98        C312 1.682       .   S
O91         C98 1.304       .   A
Zn77        O93 1.922       .   S
C224       C225 1.540       .   A
C225       C226 1.540       .   A
C60        C225 1.402       .   S
C224       H229 1.140       .   S
C223       C224 1.540       .   A
C226       H230 1.140       .   S
C221       C226 1.540       .   A
C221       H227 1.140       .   S
C221       C222 1.540       .   A
C223       H228 1.140       .   S
C222       C223 1.540       .   A
C135       N140 1.540       .   A
C139       N140 1.540       .   A
C324       H329 1.140       .   S
C323       H328 1.140       .   S
C214       H219 1.140       .   S
Zn80        O91 1.922       .   S
Zn80        O92 1.922       .   S
C321       H327 1.140       .   S
C316       H320 1.140       .   S
C216       H220 1.140       .   S
C143       H148 1.140       .   S
C141       H147 1.140       .   S
C311       H317 1.140       .   S
C311       C312 1.540       .   A
C311       C316 1.540       .   A
C3           N4 1.540       .   A
N4           C5 1.540       .   A
C312       C313 1.540       .   A
C313       H318 1.140       .   S
C313       C314 1.540       .   A
C314       C315 1.540       .   A
C315       C316 1.540       .   A
C314       H319 1.140       .   S
C27        C192 1.625       .   S
C172        C24 1.694       .   S
C25        C165 1.242       .   S
C28        C182 1.644       .   S
C29        C202 1.744       .   S
C166       H170 1.140       .   S
C165       C166 1.540       .   A
C161       C166 1.540       .   A
C164       H169 1.140       .   S
C164       C165 1.540       .   A
C163       C164 1.540       .   A
C162       C163 1.540       .   A
C5         C162 1.242       .   S
C161       C162 1.540       .   A
C163       H168 1.140       .   S
C161       H167 1.140       .   S
C364       H369 1.140       .   S
C364       C365 1.540       .   A
C363       C364 1.540       .   A
C365       C366 1.540       .   A
C365       C137 1.624   1_554   S
C361       C366 1.540       .   A
C361       H367 1.140       .   S
C361       C362 1.540       .   A
C132       C362 1.624       .   S
C362       C363 1.540       .   A
C363       H368 1.140       .   S
C184       C185 1.540       .   A
C183       C184 1.540       .   A
C185       C186 1.540       .   A
C186       H190 1.140       .   S
C181       C186 1.540       .   A
C181       C182 1.540       .   A
C182       C183 1.540       .   A
C261       C262 1.540       .   A
C261       C266 1.540       .   A
C262       C263 1.540       .   A
C263       C264 1.540       .   A
C59        C262 1.691       .   S
C265       C135 1.691       .   S
C264       C265 1.540       .   A
C265       C266 1.540       .   A
C266       H270 1.140       .   S
C214       C215 1.540       .   A
C213       C214 1.540       .   A
C215       C216 1.540       .   A
C64        C215 1.701       .   S
C211       C216 1.540       .   A
C211       H217 1.140       .   S
C211       C212 1.540       .   A
C212       C213 1.540       .   A
C135       N136 1.540       .   A
N136       C137 1.540       .   A
C137       N138 1.540       .   A
N138       C139 1.540       .   A
N66         C67 1.540       .   A
C65         N66 1.540       .   A
C67         N68 1.540       .   A
N68         C69 1.540       .   A
N2           C3 1.540       .   A
C1           N2 1.540       .   A
C142         C1 1.652       .   S
C1           N6 1.540       .   A
C5           N6 1.540       .   A
C252        C69 1.402   1_656   S
C69         N70 1.540       .   A
C65         N70 1.540       .   A
C62        C255 1.402       .   S
C171       H177 1.140       .   S
C173       H178 1.140       .   S
C174       H179 1.140       .   S
C321       C322 1.540       .   A
C322       C323 1.540       .   A
C323       C324 1.540       .   A
C324       C325 1.540       .   A
C325       C102 0.942       .   S
O119       C131 1.304       .   A
C375       C131 1.639       .   S
O118       C130 1.304       .   A
C372       C139 1.639       .   S
Zn113      O118 1.922       .   S
Zn113      O116 1.942       .   S
Zn112      O117 1.922       .   S
Zn112      O116 1.942       .   S
Zn115      O116 1.942       .   S
Zn114      O119 1.922       .   S
Zn114      O116 1.942       .   S
C251       C252 1.540       .   A
C251       C256 1.540       .   A
C252       C253 1.540       .   A
C253       C254 1.540       .   A
C254       C255 1.540       .   A
C255       C256 1.540       .   A
C351       H357 1.140       .   S
Zn79        O90 1.922       .   S
C171       C172 1.540       .   A
C172       C173 1.540       .   A
C173       C174 1.540       .   A
C174       C175 1.540       .   A
C375       C376 1.540       .   A
C371       C376 1.540       .   A
C374       C375 1.540       .   A
C373       C374 1.540       .   A
C372       C373 1.540       .   A
C371       C372 1.540       .   A
C195       C196 1.540       .   A
C191       C196 1.540       .   A
C194       C195 1.540       .   A
C194       H199 1.140       .   S
C193       C194 1.540       .   A
C193       H198 1.140       .   S
C192       C193 1.540       .   A
C191       C192 1.540       .   A
C191       H197 1.140       .   S
C294       C295 1.540       .   A
C293       C294 1.540       .   A
C295       C296 1.540       .   A
C291       C296 1.540       .   A
C296       H300 1.140       .   S
C291       C292 1.540       .   A
C292       C293 1.540       .   A
C335       C104 2.246   1_556   S
C205       C100 1.744   1_655   S
C205       C206 1.540       .   A
C201       C206 1.540       .   A
C204       C205 1.540       .   A
C203       C204 1.540       .   A
C202       C203 1.540       .   A
C201       C202 1.540       .   A
C332       C333 1.540       .   A
C333       C334 1.540       .   A
C331       C332 1.540       .   A
C331       C336 1.540       .   A
C335       C336 1.540       .   A
C334       C335 1.540       .   A
C141       C142 1.540       .   A
C141       C146 1.540       .   A
C142       C143 1.540       .   A
C143       C144 1.540       .   A
C144       C145 1.540       .   A
C145       C146 1.540       .   A
