data_nbo_v1-4c_Cu_1_Ch_1B_4H_Ch
_audit_creation_date              2020-02-03
_audit_creation_method            'tobacco_3.0'
_symmetry_space_group_name_H-M    'P1'
_symmetry_Int_Tables_number       1
_symmetry_cell_setting            triclinic
loop_
_symmetry_equiv_pos_as_xyz
  x,y,z
_cell_length_a                    22.369288048310263
_cell_length_b                    22.36954814257774
_cell_length_c                    22.36954814257774
_cell_angle_alpha                 89.99999999987416
_cell_angle_beta                  89.99999999985017
_cell_angle_gamma                 89.99999999985017
loop_
_atom_site_label
_atom_site_type_symbol
_atom_site_fract_x
_atom_site_fract_y
_atom_site_fract_z
O1         O   -0.0000001786   -0.0867350555    0.5497062743
O2         O   -0.0000014713    0.0867354925    0.5497042509
O3         O   -0.0867389411    0.0000074768    0.5497021610
O4         O    0.0867436117   -0.0000007161    0.5497083748
O5         O    0.0867452616   -0.0000011531    0.4502978495
O6         O   -0.0867309687    0.0000007203    0.4502917983
O7         O    0.0000001786    0.0867350555    0.4502937257
O8         O    0.0000014713   -0.0867354925    0.4502957491
Cu9       Cu   -0.0000017360    0.0000049835    0.5587770653
Cu10      Cu    0.0000017360   -0.0000049835    0.4412229347
C11        C   -0.0000002388   -0.1123129808    0.5000000000
C12        C    0.0000002388    0.1123129808    0.5000000000
C13        C   -0.1123103742   -0.0000002388    0.5000000000
C14        C    0.1123103742    0.0000002388    0.5000000000
O15        O    1.0497067662    0.5867348318    0.4999996665
O16        O    1.0497047428    0.4132642837    0.4999983738
O17        O    1.0497026528    0.4999922994    0.4132619125
O18        O    1.0497088667    0.5000004923    0.5867424482
O19        O    0.9502971856    0.5000009293    0.5867440981
O20        O    0.9502911343    0.4999990559    0.4132698849
O21        O    0.9502930616    0.4132647207    0.5000000237
O22        O    0.9502950851    0.5867352688    0.5000013164
Cu23      Cu    1.0587776627    0.4999947927    0.4999981091
Cu24      Cu    0.9412221652    0.5000047598    0.5000015811
C25        C    0.9999999139    0.6123127570    0.4999996063
C26        C    0.9999999139    0.3876867955    0.5000000839
C27        C    0.9999999139    0.5000000150    0.3876907768
C28        C    0.9999999139    0.4999995375    0.6123089134
O29        O    0.4999999548    0.9502936396    0.5867349006
O30        O    0.5000012475    0.9502956630    0.4132643525
O31        O    0.5867387174    0.9502977529    0.4999923683
O32        O    0.4132561645    0.9502915391    0.5000005612
O33        O    0.4132545147    1.0497020644    0.5000009982
O34        O    0.5867307449    1.0497081156    0.4999991248
O35        O    0.4999995977    1.0497061883    0.4132647896
O36        O    0.4999983050    1.0497041649    0.5867353376
Cu37      Cu    0.5000015122    0.9412228486    0.4999948616
Cu38      Cu    0.4999980402    1.0587769793    0.5000048286
C39        C    0.5000000150    0.9999999139    0.6123128259
C40        C    0.4999995375    0.9999999139    0.3876868643
C41        C    0.6123101504    0.9999999139    0.5000000839
C42        C    0.3876894021    0.9999999139    0.4999996063
O43        O    0.4502924936    0.9999993395    1.0867344359
O44        O    0.4502945171    0.9999980468    0.9132638878
O45        O    0.4502966070    0.9132615854    0.9999919036
O46        O    0.4502903931    1.0867421212    1.0000000964
O47        O    0.5497020743    1.0867437710    1.0000005335
O48        O    0.5497081256    0.9132695578    0.9999986600
O49        O    0.5497061982    0.9999996966    0.9132643248
O50        O    0.5497041748    1.0000009893    1.0867348729
Cu51      Cu    0.4412215972    0.9999977821    0.9999943968
Cu52      Cu    0.5587770947    1.0000012540    1.0000043639
C53        C    0.4999993459    0.9999992793    1.1123123611
C54        C    0.4999993459    0.9999997569    0.8876863996
C55        C    0.4999993459    0.8876904497    0.9999996192
C56        C    0.4999993459    1.1123085864    0.9999991416
O57        O    0.9999993394    0.5497056203    1.0867344359
O58        O    0.9999980467    0.5497035969    0.9132638878
O59        O    0.9132605769    0.5497015069    0.9999919036
O60        O    1.0867431297    0.5497077207    1.0000000964
O61        O    1.0867447796    0.4502971955    1.0000005334
O62        O    0.9132685494    0.4502911442    0.9999986600
O63        O    0.9999996966    0.4502930716    0.9132643248
O64        O    1.0000009893    0.4502950950    1.0867348729
Cu65      Cu    0.9999977820    0.5587764113    0.9999943968
Cu66      Cu    1.0000012540    0.4412222806    1.0000043639
C67        C    0.9999992792    0.4999993459    1.1123123611
C68        C    0.9999997568    0.4999993459    0.8876863996
C69        C    0.8876891439    0.4999993459    0.9999996191
C70        C    1.1123098922    0.4999993459    0.9999991416
O71        O    0.4999989909    0.5867338679    1.0497050867
O72        O    0.5000002836    0.4132633198    1.0497030633
O73        O    0.5867377534    0.4999913356    1.0497009733
O74        O    0.4132552006    0.4999995285    1.0497071872
O75        O    0.4132535507    0.4999999655    0.9502966619
O76        O    0.5867297810    0.4999980920    0.9502906106
O77        O    0.4999986337    0.4132637568    0.9502925380
O78        O    0.4999973410    0.5867343049    0.9502945614
Cu79      Cu    0.5000005483    0.4999938288    1.0587758777
Cu80      Cu    0.4999970763    0.5000037959    0.9412217470
C81        C    0.4999990511    0.6123117931    0.9999988124
C82        C    0.4999985735    0.3876858316    0.9999988124
C83        C    0.6123091865    0.4999990512    0.9999988124
C84        C    0.3876884381    0.4999985736    0.9999988124
C195       C    1.2155773989    0.5306342976    0.9488512936
C196       C    1.1811539664    0.4999991529    0.9999990593
C197       C    1.2155757327    0.4693638150    1.0511467426
C198       C    1.2844209315    0.4693636219    1.0511466603
C199       C    1.3188443639    0.4999987667    0.9999988947
C200       C    1.2844225976    0.5306341045    0.9488512113
H201       H    1.1900963511    0.5533124049    0.9109887228
H202       H    1.1900967197    0.4466868202    1.0890077556
H203       H    1.3099019792    0.4466855146    1.0890092311
H204       H    1.3099016106    0.5533110993    0.9109901983
C185       C    0.7844209271    0.5585111046    0.9885551526
C186       C    0.8188443639    0.4999992722    0.9999994175
C187       C    0.7844226019    0.4414873662    1.0114434806
C188       C    0.7155774032    0.4414872925    1.0114432789
C189       C    0.6811539664    0.4999991249    0.9999990141
C190       C    0.7155757284    0.5585110309    0.9885549509
H191       H    0.8099019717    0.6018251130    0.9800835733
H192       H    0.8099016181    0.3981752641    1.0199148470
H193       H    0.6900963586    0.3981732841    1.0199148582
H194       H    0.6900967122    0.6018231330    0.9800835845
C175       C    0.4640445453    1.2155756604    0.9524394667
C176       C    0.4999991528    1.1811528107    0.9999990593
C177       C    0.5359535673    1.2155743593    1.0475585695
C178       C    0.5359533742    1.2844187575    1.0475584872
C179       C    0.4999987666    1.3188416072    0.9999988947
C180       C    0.4640443522    1.2844200587    0.9524393844
H181       H    0.4374289398    1.1900947739    0.9172330760
H182       H    0.5625681778    1.1900957776    1.0827635161
H183       H    0.5625689796    1.3098996441    1.0827648780
H184       H    0.4374297416    1.3098986404    0.9172344379
C165       C    0.4408966775    0.7844225526    1.0078463933
C166       C    0.4999992722    0.8188455197    0.9999994175
C167       C    0.5591017932    0.7844240886    0.9921522400
C168       C    0.5591017195    0.7155796903    0.9921520383
C169       C    0.4999991248    0.6811567232    0.9999990141
C170       C    0.4408966038    0.7155781543    1.0078461916
H171       H    0.3971454606    0.8099033522    1.0136553428
H172       H    0.6028511942    0.8099027572    0.9863436880
H173       H    0.6028529364    0.6900988907    0.9863430887
H174       H    0.3971472028    0.6900994857    1.0136547435
C155       C    0.5577796849    0.9852978844    0.7844211356
C156       C    0.4999995132    0.9999997961    0.8188440110
C157       C    0.4422195087    1.0147017471    0.7844224881
C158       C    0.4422196760    1.0147017864    0.7155780899
C159       C    0.4999998478    0.9999998747    0.6811552145
C160       C    0.5577798522    0.9852979237    0.7155767373
H161       H    0.6005518960    0.9744146220    0.8099020031
H162       H    0.3994490024    1.0255845152    0.8099010888
H163       H    0.3994474649    1.0255850488    0.6900972223
H164       H    0.6005503586    0.9744151556    0.6900981366
C145       C    0.5065845324    0.9407437580    0.2155783539
C146       C    0.4999993938    0.9999994379    0.1811552145
C147       C    0.4934143031    1.0592552765    0.2155764733
C148       C    0.4934143510    1.0592554352    0.2844208716
C149       C    0.4999994896    0.9999997553    0.3188440110
C150       C    0.5065845803    0.9407439167    0.2844227521
H151       H    0.5114592099    0.8968790463    0.1900976817
H152       H    0.4885397985    1.1031179955    0.1900976772
H153       H    0.4885396734    1.1031201469    0.3099015437
H154       H    0.5114590849    0.8968811977    0.3099015482
C135       C    0.9551869136    0.4606743847    0.7844189944
C136       C    0.9999997961    0.4999993938    0.8188420548
C137       C    1.0448127179    0.5393244509    0.7844207168
C138       C    1.0448127572    0.5393244987    0.7155763186
C139       C    0.9999998747    0.4999994896    0.6811532582
C140       C    0.9551869528    0.4606744325    0.7155745962
H141       H    0.9220137117    0.4315636282    0.8098997251
H142       H    1.0779844725    0.5684339274    0.8098994544
H143       H    1.0779859591    0.5684352552    0.6900955879
H144       H    0.9220151982    0.4315649560    0.6900958586
C125       C    0.9406159548    0.4946834311    0.2844231096
C126       C    0.9999997553    0.4999998478    0.3188459672
C127       C    1.0593833971    0.5053160972    0.2844244266
C128       C    1.0593832384    0.5053159299    0.2155800283
C129       C    0.9999994379    0.4999995132    0.1811571707
C130       C    0.9406157961    0.4946832638    0.2155787113
H131       H    0.8966566355    0.4907480257    0.3099039903
H132       H    1.1033409545    0.5092514581    0.3099030141
H133       H    1.1033425577    0.5092513353    0.1900991476
H134       H    0.8966582387    0.4907479028    0.1901001238
C115       C    0.2844217182   -0.0296220250    0.5517408522
C116       C    0.3188450868   -0.0000000048    0.4999997047
C117       C    0.2844232567    0.0296220965    0.4482586557
C118       C    0.2155780580    0.0296221777    0.4482587541
C119       C    0.1811546894    0.0000001576    0.4999999016
C120       C    0.2155765195   -0.0296219438    0.5517409506
H121       H    0.3099028132   -0.0515500740    0.5900426677
H122       H    0.3099022225    0.0515491480    0.4099584048
H123       H    0.1900969630    0.0515502268    0.4099569386
H124       H    0.1900975537   -0.0515489953    0.5900412015
C105       C   -0.2155783581   -0.0559250406    0.4793356208
C106       C   -0.1811549132   -0.0000002006    0.5000000210
C107       C   -0.2155766669    0.0559246776    0.5206644421
C108       C   -0.2844218656    0.0559247158    0.5206644631
C109       C   -0.3188453106   -0.0000001242    0.5000000629
C110       C   -0.2844235568   -0.0559250024    0.4793356418
H111       H   -0.1900973196   -0.0973239764    0.4640385818
H112       H   -0.1900976446    0.0973218152    0.5359608116
H113       H   -0.3099029041    0.0973236515    0.5359615021
H114       H   -0.3099025791   -0.0973221401    0.4640392722
C95        C   -0.0383042671    0.2155784382    0.5456882795
C96        C    0.0000001576    0.1811554899    0.5000000210
C97        C    0.0383045011    0.2155769398    0.4543117834
C98        C    0.0383044199    0.2844213381    0.4543118044
C99        C   -0.0000000049    0.3188442864    0.5000000629
C100       C   -0.0383043484    0.2844228364    0.5456883005
H101       H   -0.0666594305    0.1900976246    0.5795094424
H102       H    0.0666585123    0.1900982852    0.4204920509
H103       H    0.0666595832    0.3099021517    0.4204906415
H104       H   -0.0666583596    0.3099014911    0.5795080330
C85        C    0.0342481270   -0.2155787718    0.5488023971
C86        C   -0.0000002006   -0.1811557136    0.4999999016
C87        C   -0.0342484900   -0.2155770537    0.4511973076
C88        C   -0.0342484518   -0.2844214519    0.4511972092
C89        C   -0.0000001242   -0.3188445101    0.4999997047
C90        C    0.0342481652   -0.2844231701    0.5488022987
H91        H    0.0596007568   -0.1900980396    0.5849289926
H92        H   -0.0596000642   -0.1900983177    0.4150723294
H93        H   -0.0596010817   -0.3099021842    0.4150706137
H94        H    0.0595997394   -0.3099019061    0.5849272769
loop_
_geom_bond_atom_site_label_1
_geom_bond_atom_site_label_2
_geom_bond_distance
_geom_bond_site_symmetry_2
_ccdc_geom_bond_type
C118       H123 1.140       .   S
C140       H144 1.140       .   S
C95        H101 1.140       .   S
C95        C100 1.540       .   A
C95         C96 1.540       .   A
C39        C159 1.540       .   S
O36         C39 1.250       .   A
O29         C39 1.250       .   A
C115       H121 1.140       .   S
O8          C11 1.250       .   A
O8         Cu10 1.951       .   S
O7          C12 1.250       .   A
O7         Cu10 1.951       .   S
O6          C13 1.251       .   A
O6         Cu10 1.951       .   S
O5         Cu10 1.951       .   S
O5          C14 1.250       .   A
O4          Cu9 1.951       .   S
O4          C14 1.250       .   A
O3          C13 1.250       .   A
O3          Cu9 1.951       .   S
O2          C12 1.250       .   A
O2          Cu9 1.951       .   S
O1          C11 1.250       .   A
O1          Cu9 1.951       .   S
C149       C150 1.540       .   A
C150       H154 1.140       .   S
C145       C150 1.540       .   A
C157       H162 1.140       .   S
C157       C158 1.540       .   A
C156       C157 1.540       .   A
C156        C54 1.540       .   S
C155       C156 1.540       .   A
C155       H161 1.140       .   S
C155       C160 1.540       .   A
O29        Cu37 1.951       .   S
C158       C159 1.540       .   A
C159       C160 1.540       .   A
C158       H163 1.140       .   S
O22        Cu24 1.951       .   S
O22         C25 1.250       .   A
O20        Cu24 1.951       .   S
O20         C27 1.251       .   A
O21        Cu24 1.951       .   S
O21         C26 1.250       .   A
O48        Cu52 1.951       .   S
O49        Cu52 1.951       .   S
O50        Cu52 1.951       .   S
Cu51       Cu52 2.630       .   S
O47        Cu52 1.951       .   S
O43        Cu51 1.951       .   S
O44        Cu51 1.951       .   S
O45        Cu51 1.951       .   S
O46        Cu51 1.951       .   S
O16         C26 1.250       .   A
C99         C26 1.540   1_455   S
O17         C27 1.250       .   A
C27        C126 1.540       .   S
C25         C89 1.540   1_665   S
O15         C25 1.250       .   A
C139        C28 1.540       .   S
O19         C28 1.250       .   A
O18         C28 1.250       .   A
O15        Cu23 1.951       .   S
C167       C168 1.540       .   A
C168       H173 1.140       .   S
C168       C169 1.540       .   A
C169       C170 1.540       .   A
C169        C81 1.540       .   S
C166       C167 1.540       .   A
C55        C166 1.540       .   S
C165       C166 1.540       .   A
C167       H172 1.140       .   S
C165       C170 1.540       .   A
C165       H171 1.140       .   S
C125       H131 1.140       .   S
C160       H164 1.140       .   S
C128       H133 1.140       .   S
C130       H134 1.140       .   S
O59         C69 1.250       .   A
O59        Cu65 1.951       .   S
O58         C68 1.250       .   A
O58        Cu65 1.951       .   S
O62        Cu66 1.951       .   S
O63        Cu66 1.951       .   S
O61        Cu66 1.951       .   S
O64        Cu66 1.951       .   S
Cu65       Cu66 2.630       .   S
O57        Cu65 1.951       .   S
O60        Cu65 1.951       .   S
O50         C53 1.250       .   A
O57         C67 1.250       .   A
C56        C176 1.540       .   S
O46         C56 1.250       .   A
O47         C56 1.250       .   A
O48         C55 1.251       .   A
O45         C55 1.250       .   A
O49         C54 1.250       .   A
O44         C54 1.250       .   A
O43         C53 1.250       .   A
C146        C53 1.540   1_554   S
C188       H193 1.140       .   S
C187       C188 1.540       .   A
C188       C189 1.540       .   A
C189        C83 1.540       .   S
C189       C190 1.540       .   A
C135       H141 1.140       .   S
C127       H132 1.140       .   S
C200       H204 1.140       .   S
C197       H202 1.140       .   S
C198       H203 1.140       .   S
C195       H201 1.140       .   S
C178       C179 1.540       .   A
C179        C82 1.540   1_565   S
C179       C180 1.540       .   A
C178       H183 1.140       .   S
C177       C178 1.540       .   A
C137       H142 1.140       .   S
C170       H174 1.140       .   S
C120       H124 1.140       .   S
C175       H181 1.140       .   S
C175       C180 1.540       .   A
C175       C176 1.540       .   A
C117       H122 1.140       .   S
C177       H182 1.140       .   S
C176       C177 1.540       .   A
Cu79       Cu80 2.630       .   S
O74        Cu79 1.951       .   S
O71        Cu79 1.951       .   S
O73        Cu79 1.951       .   S
O72        Cu79 1.951       .   S
C196       C197 1.540       .   A
C197       C198 1.540       .   A
C70        C196 1.540       .   S
C195       C196 1.540       .   A
C195       C200 1.540       .   A
O30         C40 1.250       .   A
O35         C40 1.250       .   A
C40        C149 1.540       .   S
O31         C41 1.250       .   A
O34         C41 1.251       .   A
C41        C109 1.540   1_665   S
C116        C42 1.540   1_545   S
O33         C42 1.250       .   A
O32         C42 1.250       .   A
C185       C190 1.540       .   A
C190       H194 1.140       .   S
C199       C200 1.540       .   A
C199        C84 1.540   1_655   S
C198       C199 1.540       .   A
O75        Cu80 1.951       .   S
O77        Cu80 1.951       .   S
O76        Cu80 1.951       .   S
O78        Cu80 1.951       .   S
C85         H91 1.140       .   S
C87         H92 1.140       .   S
C88         H93 1.140       .   S
C90         H94 1.140       .   S
C96         C12 1.540       .   S
C96         C97 1.540       .   A
C107       H112 1.140       .   S
C108       H113 1.140       .   S
C105       H111 1.140       .   S
C110       H114 1.140       .   S
C187       H192 1.140       .   S
C185       H191 1.140       .   S
C107       C108 1.540       .   A
C108       C109 1.540       .   A
O78         C81 1.250       .   A
O75         C84 1.250       .   A
O74         C84 1.250       .   A
O77         C82 1.250       .   A
O76         C83 1.251       .   A
O71         C81 1.250       .   A
O73         C83 1.250       .   A
O72         C82 1.250       .   A
C185       C186 1.540       .   A
O60         C70 1.250       .   A
O61         C70 1.250       .   A
C186       C187 1.540       .   A
C69        C186 1.540       .   S
C100       H104 1.140       .   S
C98        H103 1.140       .   S
C97        H102 1.140       .   S
C180       H184 1.140       .   S
C11         C86 1.540       .   S
C85         C86 1.540       .   A
C86         C87 1.540       .   A
O62         C69 1.251       .   A
O63         C68 1.250       .   A
C88         C89 1.540       .   A
C87         C88 1.540       .   A
O64         C67 1.250       .   A
C119       C120 1.540       .   A
C119        C14 1.540       .   S
C118       C119 1.540       .   A
C116       C117 1.540       .   A
C117       C118 1.540       .   A
C115       C116 1.540       .   A
C115       C120 1.540       .   A
Cu9        Cu10 2.630       .   S
C89         C90 1.540       .   A
C136        C68 1.540       .   S
C129        C67 1.540   1_554   S
C13        C106 1.540       .   S
C105       C106 1.540       .   A
C106       C107 1.540       .   A
C85         C90 1.540       .   A
O17        Cu23 1.951       .   S
O16        Cu23 1.951       .   S
Cu23       Cu24 2.630       .   S
O19        Cu24 1.951       .   S
O18        Cu23 1.951       .   S
C148       C149 1.540       .   A
C148       H153 1.140       .   S
C147       C148 1.540       .   A
C128       C129 1.540       .   A
C127       C128 1.540       .   A
C129       C130 1.540       .   A
C105       C110 1.540       .   A
C109       C110 1.540       .   A
C126       C127 1.540       .   A
C125       C126 1.540       .   A
C125       C130 1.540       .   A
C99        C100 1.540       .   A
C135       C140 1.540       .   A
C135       C136 1.540       .   A
C136       C137 1.540       .   A
C137       C138 1.540       .   A
C97         C98 1.540       .   A
O31        Cu37 1.951       .   S
O30        Cu37 1.951       .   S
O32        Cu37 1.951       .   S
Cu37       Cu38 2.630       .   S
O33        Cu38 1.951       .   S
O35        Cu38 1.951       .   S
O34        Cu38 1.951       .   S
O36        Cu38 1.951       .   S
C98         C99 1.540       .   A
C139       C140 1.540       .   A
C138       C139 1.540       .   A
C138       H143 1.140       .   S
C147       H152 1.140       .   S
C145       H151 1.140       .   S
C145       C146 1.540       .   A
C146       C147 1.540       .   A
